 &NACIETEO
 /
 &NACOBS
 /
 &NACTAN
 /
 &NACTEX
 /
 &NACVEG
 /
 &NADOCK
 /
 &NAEAEM7
 /
 &NAEAER
 /
 &NAECOAPHY
 /
 &NAEPHLI
 /
 &NAEPHY
 /
 &NAERAD
   LRRTM=.FALSE.,
   LSRTM=.FALSE.,
   NMCICA=0,
 /
 &NAERCLI
 /
 &NAETLDIAG
 /
 &NAEVOL
 /
 &NAIMPO
 /
 &NALORI
 /
 &NAMACV
 /
 &NAMAERDET
 /
 &NAMAFN
   TFP_I%LLGP=.TRUE.,
   TFP_L%LLGP=.TRUE.,
   TFP_I%CLNAME='ICE_CRYSTAL',
   TFP_L%CLNAME='CLOUD_WATER',
 /
 &NAMARG
   CNMEXP='ARPE',
   NCONF=903,
   LELAM=.FALSE.,
   LECMWF=.FALSE.,
   NSUPERSEDE=1,
 /
 &NAMARPHY
   LMPA=.FALSE.,
   LMSE=.FALSE.,
 /
 &NAMCA
 /
 &NAMCAPE
 /
 &NAMCFU
 /
 &NAMCHEM
 /
 &NAMCHET
 /
 &NAMCHK
 /
 &NAMCLA
 /
 &NAMCLDP
 /
 &NAMCLI
 /
 &NAMCLRADLID
 /
 &NAMCLTC
 /
 &NAMCOK
 /
 &NAMCOM
 /
 &NAMCOMPO
 /
 &NAMCOSJO
 /
 &NAMCT0
   NSPPR=0,
   NFPOS=1,
   LGRIB_API=.FALSE.,
   LALLOPR=.FALSE.,
 /
 &NAMCT1
   N1HIS=0,
   LRFILAF=.FALSE.,
 /
 &NAMCUMF
 /
 &NAMCUMFS
 /
 &NAMCVER
   NDLNPR=1,
 /
 &NAMCVMNH
 /
 &NAMDDH
 /
 &NAMDFI
 /
 &NAMDIM
   NPROMA=-16,
 /
 &NAMDIMO
 /
 &NAMDIM_TRAJ
 /
 &NAMDPHY
 /
 &NAMDPRECIPS
 /
 &NAMDVISI
 /
 &NAMDWET
 /
 &NAMDYN
 /
 &NAMDYNA
   LSETTLS=.FALSE.,
   LSLAG=.FALSE.,
 /
 &NAMDYNA_STATIC
 /
 &NAMDYNCORE
 /
 &NAMECV
 /
 &NAMECVDESC
 /
 &NAMECVGRB
 /
 &NAMEMIS_CONF
 /
 &NAMENKF
 /
 &NAMENSCOV
 /
 &NAMFA
   NBITCS=-1,
   NSTRON=-1,
   NBITPG=-1,
 /
 &NAMFAINIT
 /
 &NAMFPC
   NFPSURFEX=1,
   LTRACEFP=.TRUE.,
   CFPFMT='LELAM',
   CFPDOM(1)='FRANGP',
   CFPPHY(1)='SURFTEMPERATURE',
   CFPPHY(2)='SURFIND.TERREMER',
   CFPPHY(3)='PROFTEMPERATURE',
   CFPPHY(4)='SURFRESERV.EAU',
   CFPPHY(5)='PROFRESERV.EAU',
   CFPPHY(6)='PROFRESERV.GLACE',
   CFPPHY(7)='SURFRESERV.GLACE',
   CFPPHY(8)='SURFRESERV.NEIGE',
   CFPPHY(9)='SURFPROP.ARGILE',
   CFPPHY(10)='SURFPROP.SABLE',
   CFPPHY(11)='SURFEPAIS.SOL',
   CFPPHY(12)='SURFGEOPOTENTIEL',
   CFPPHY(13)='SEASURFTEMPERATU',
   NFPCLI=2,
   NFPMASK=2,
   NFPINPHY=4,
 /
 &NAMFPD
   NLAT(1)=640,
   NLON(1)=720,
   RLONC(1)=5.7,
   RLATC(1)=44.,
   RDELX(1)=1000.,
   RDELY(1)=1000.,
   NFPGUX=629,
   NFPLUX=709,
   NFPBZONL=16,
   NFPBZONG=16,
 /
 &NAMFPDY2
 /
 &NAMFPDYF
 /
 &NAMFPDYH
 /
 &NAMFPDYI
 /
 &NAMFPDYP
 /
 &NAMFPDYS
 /
 &NAMFPDYT
 /
 &NAMFPDYV
 /
 &NAMFPF
 /
 &NAMFPG
   FPLAT0=44.,
   FPLON0=5.7,
   NFPMAX=319,
   NMFPMAX=359,
   NFPDISTRIB=1,
 /
 &NAMFPIOS
   NFPXFLD=200,
 /
 &NAMFPMOVE
 /
 &NAMFPOBJ
 /
 &NAMFPPHY
 /
 &NAMFPSC2
   NFPROMA=-16,
 /
 &NAMFPSC2_DEP
   NFPROMA_DEP=-16,
 /
 &NAMGEM
   LNONHYD_GEOM=.FALSE.,
   LNHX_GEOM=.FALSE.,
 /
 &NAMGFL
 /
 &NAMGRIB
 /
 &NAMGWD
 /
 &NAMGWDIAG
 /
 &NAMGWWMS
 /
 &NAMIAU
 /
 &NAMICE
 /
 &NAMINI
   LDFI=.FALSE.,
 /
 &NAMINTFLEX
 /
 &NAMIOMI
 /
 &NAMIOS
 /
 &NAMIO_SERV
 /
 &NAMJBALPHACV
 /
 &NAMJBCODES
 /
 &NAMJBECPHYSECV
 /
 &NAMJBHYBACV
 /
 &NAMJBSKTECV
 /
 &NAMJG
 /
 &NAMLCZ
 /
 &NAMLSFORC
 /
 &NAMMARS
 /
 &NAMMCC
 /
 &NAMMCUF
 /
 &NAMMETHOX
 /
 &NAMMKODB
 /
 &NAMMODERR
 /
 &NAMMODERRCONF
 /
 &NAMMODERRCOV
 /
 &NAMMODERRINCRCONF
 /
 &NAMMODERRMOD
 /
 &NAMMTS
 /
 &NAMMWAVE
 /
 &NAMNORGWD
 /
 &NAMNPROF
 /
 &NAMNRTAER
 /
 &NAMNUD
 /
 &NAMNUDGLH
 /
 &NAMOBS
 /
 &NAMOOPS
 /
 &NAMOPH
 /
 &NAMOPTCMEM
 /
 &NAMPAR0
   MBX_SIZE=__MBX_SIZE__,
   NOUTPUT=1,
   NPROC=__NTASKS__,
   MP_TYPE=__MP_TYPE__,
   LOPT_SCALAR=__LOPT_SCALAR__,
   NPRINTLEV=1,
 /
 &NAMPAR1
   LEQ_REGIONS=.FALSE.,
   LSPLIT=.FALSE.,
   NSTRIN=__NTASKS__,
   NSTROUT=__NTASKS__,
   NCOMBFLEN=__NCOMBFLEN__,
 /
 &NAMPARAR
 /
 &NAMPARECV
 /
 &NAMPERTOBS
 /
 &NAMPERTPAR
 /
 &NAMPHMSE
   LPGDFWR=.FALSE.,
 /
 &NAMPHY
   LFGEL=.TRUE.,
   LMPHYS=.TRUE.,
   LRAY=.FALSE.,
   LSOLV=.TRUE.,
 /
 &NAMPHY0
 /
 &NAMPHY1
 /
 &NAMPHY2
 /
 &NAMPHY3
 /
 &NAMPHYDS
 /
 &NAMPPC
 /
 &NAMPPVI
 /
 &NAMPRE
 /
 &NAMRADCMEM
 /
 &NAMRCF
 /
 &NAMRCOEF
 /
 &NAMRES
 /
 &NAMRGRI
 /
 &NAMRINC
 /
 &NAMRIP
   CSTOP='t0',
   TSTEP=1800.,
 /
 &NAMRIP0
 /
 &NAMRLX
 /
 &NAMRSTRHBIAS
 /
 &NAMSATS
 /
 &NAMSATSIM
 /
 &NAMSCC
 /
 &NAMSCEN
 /
 &NAMSCM
 /
 &NAMSEKF
 /
 &NAMSENS
 /
 &NAMSIMPHL
 /
 &NAMSPNG
 /
 &NAMSPP
 /
 &NAMSPSDT
 /
 &NAMSTA
 /
 &NAMSTOPH
 /
 &NAMSWE
 /
 &NAMTESTVAR
 /
 &NAMTHLIM
 /
 &NAMTOPH
 /
 &NAMTRAJ
 /
 &NAMTRAJP
 /
 &NAMTRANS
   LFFTW=.TRUE.,
 /
 &NAMTRANS0
 /
 &NAMVAR
 /
 &NAMVARBC
 /
 &NAMVARBC_AIREP
 /
 &NAMVARBC_ALLSKY
 /
 &NAMVARBC_GBRAD
 /
 &NAMVARBC_MODES
 /
 &NAMVARBC_RAD
 /
 &NAMVARBC_SFCOBS
 /
 &NAMVARBC_TCWV
 /
 &NAMVARBC_TO3
 /
 &NAMVAREPS
 /
 &NAMVDF
 /
 &NAMVDOZ
 /
 &NAMVOLCANO
 /
 &NAMVRTL
 /
 &NAMVV0
 /
 &NAMVV1
 /
 &NAMVWRK
 /
 &NAMWAVELETJB
 /
 &NAMXFU
 /
 &NAM_CANAPE
 /
 &NAM_DISTRIBUTED_VECTORS
 /
 &NAM_NEBN
 /
 &NAM_PARAM_ICEN
 /
 &NAM_PARAM_LIMA
 /
 &NAM_PARAM_MFSHALLN
 /
 &NAM_SPP_ACTIVE
 /
 &NAM_SPP_MODIF
 /
 &NAM_TURBN
 /
 &NAPHLC
 /
 &NEMCT0
 /
 &NEMDIM
 /
 &NEMDYN
 /
 &NEMELBC0A
 /
 &NEMELBC0B
 /
 &NEMFPEZO
 /
 &NEMGEO
 /
 &NEMJK
 /
 &NEMVAR
 /
 &NEMWAVELET
 /
