 &NAM_FILE_NAMES
 /
 &NAM_PREP_ISBA
 /
 &NAM_PREP_SEAFLUX
 /
 &NAM_PREP_WATFLUX
 /
