 &NAMDDH
   LHDEFZ=.TRUE.,
   LHDHKS=.TRUE.,
   LHDZON=.TRUE.,
   LHDDOP=.TRUE.,
   LHDEFD=.TRUE.,
   NDHKD=30,
   BDEDDH(1,01)=4.,
   BDEDDH(2,01)=1.,
   BDEDDH(3,01)=-85.94,
   BDEDDH(4,01)=79.99,
   BDEDDH(1,02)=4.,
   BDEDDH(2,02)=1.,
   BDEDDH(3,02)=-156.616,
   BDEDDH(4,02)=71.322,
   BDEDDH(1,03)=4.,
   BDEDDH(2,03)=1.,
   BDEDDH(3,03)=26.65,
   BDEDDH(4,03)=67.37,
   BDEDDH(1,04)=4.,
   BDEDDH(2,04)=1.,
   BDEDDH(3,04)=14.124,
   BDEDDH(4,04)=52.167,
   BDEDDH(1,05)=4.,
   BDEDDH(2,05)=1.,
   BDEDDH(3,05)=4.927,
   BDEDDH(4,05)=51.971,
   BDEDDH(1,06)=4.,
   BDEDDH(2,06)=1.,
   BDEDDH(3,06)=-1.437,
   BDEDDH(4,06)=51.145,
   BDEDDH(1,07)=4.,
   BDEDDH(2,07)=1.,
   BDEDDH(3,07)=2.208,
   BDEDDH(4,07)=48.713,
   BDEDDH(1,08)=4.,
   BDEDDH(2,08)=1.,
   BDEDDH(3,08)=-0.692,
   BDEDDH(4,08)=44.832,
   BDEDDH(1,09)=4.,
   BDEDDH(2,09)=1.,
   BDEDDH(3,09)=4.407,
   BDEDDH(4,09)=43.858,
   BDEDDH(1,10)=4.,
   BDEDDH(2,10)=1.,
   BDEDDH(3,10)=1.374,
   BDEDDH(4,10)=43.575,
   BDEDDH(1,11)=4.,
   BDEDDH(2,11)=1.,
   BDEDDH(3,11)=0.37,
   BDEDDH(4,11)=43.128,
   BDEDDH(1,12)=4.,
   BDEDDH(2,12)=1.,
   BDEDDH(3,12)=15.75,
   BDEDDH(4,12)=40.59,
   BDEDDH(1,13)=4.,
   BDEDDH(2,13)=1.,
   BDEDDH(3,13)=-97.5,
   BDEDDH(4,13)=36.617,
   BDEDDH(1,14)=4.,
   BDEDDH(2,14)=1.,
   BDEDDH(3,14)=2.176,
   BDEDDH(4,14)=13.477,
   BDEDDH(1,15)=4.,
   BDEDDH(2,15)=1.,
   BDEDDH(3,15)=166.916,
   BDEDDH(4,15)=-0.521,
   BDEDDH(1,16)=4.,
   BDEDDH(2,16)=1.,
   BDEDDH(3,16)=147.425,
   BDEDDH(4,16)=-2.006,
   BDEDDH(1,17)=4.,
   BDEDDH(2,17)=1.,
   BDEDDH(3,17)=130.891,
   BDEDDH(4,17)=-12.425,
   BDEDDH(1,18)=4.,
   BDEDDH(2,18)=1.,
   BDEDDH(3,18)=-5.783,
   BDEDDH(4,18)=41.816,
   BDEDDH(1,19)=4.,
   BDEDDH(2,19)=1.,
   BDEDDH(3,19)=24.65,
   BDEDDH(4,19)=60.183,
   BDEDDH(1,20)=4.,
   BDEDDH(2,20)=1.,
   BDEDDH(3,20)=27.5,
   BDEDDH(4,20)=62.666,
   BDEDDH(1,21)=4.,
   BDEDDH(2,21)=1.,
   BDEDDH(3,21)=25.566,
   BDEDDH(4,21)=66.55,
   BDEDDH(1,22)=4.,
   BDEDDH(2,22)=1.,
   BDEDDH(3,22)=123.34,
   BDEDDH(4,22)=-75.08,
 /
