 &NACIETEO
 /
 &NACOBS
 /
 &NACTAN
 /
 &NACTEX
 /
 &NACVEG
 /
 &NADOCK
 /
 &NAEAEM7
 /
 &NAEAER
 /
 &NAECOAPHY
 /
 &NAEPHLI
 /
 &NAEPHY
 /
 &NAERAD
   LRRTM=.FALSE.,
   LSRTM=.FALSE.,
   NMCICA=0,
 /
 &NAERCLI
 /
 &NAETLDIAG
 /
 &NAEVOL
 /
 &NAIMPO
 /
 &NALORI
 /
 &NAMACV
 /
 &NAMAERDET
 /
 &NAMAFN
 /
 &NAMARG
   CNMEXP='ARPE',
   NCONF=903,
   LELAM=.FALSE.,
   LECMWF=.FALSE.,
   LSLAG=.FALSE.,
   NSUPERSEDE=1,
 /
 &NAMARPHY
 /
 &NAMCA
 /
 &NAMCAPE
 /
 &NAMCFU
 /
 &NAMCHEM
 /
 &NAMCHET
 /
 &NAMCHK
 /
 &NAMCLA
 /
 &NAMCLDP
 /
 &NAMCLI
 /
 &NAMCLTC
 /
 &NAMCOK
 /
 &NAMCOM
 /
 &NAMCOMPO
 /
 &NAMCOSJO
 /
 &NAMCT0
   LFBDAP=.TRUE.,
   LREGETA=.FALSE.,
   LTWOTL=.TRUE.,
   NFRHIS=1,
   NFRPOS=1,
   NFRSDI=1,
   NSPPR=0,
   LALLOPR=.FALSE.,
   LGRIB_API=.FALSE.,
   NUNDEFLD=-99999999,
 /
 &NAMCT1
   LRFILAF=.FALSE.,
   N1POS=0,
   N1RES=0,
 /
 &NAMCUMF
 /
 &NAMCUMFS
 /
 &NAMCVER
   LVERTFE=.TRUE.,
   CVFE_ETAH='CHORDAL',
   NVFE_TYPE=3,
 /
 &NAMCVMNH
 /
 &NAMDDH
 /
 &NAMDFI
 /
 &NAMDIM
   NPROMA=-16,
 /
 &NAMDIMO
 /
 &NAMDIM_TRAJ
 /
 &NAMDPHY
 /
 &NAMDPRECIPS
 /
 &NAMDVISI
 /
 &NAMDYN
   LADVF=.TRUE.,
   NTLAG=3,
   NVLAG=3,
   NWLAG=3,
   RCMSLP0=1.,
   REPS1=0.,
   REPS2=0.,
   REPSM1=0.,
   REPSM2=0.,
   REPSP1=0.,
   RW2TLFF=1.,
   SIPR=val_sipr,
   SITR=val_sitr,
   VESL=0.,
   XIDT=0.,
   NCOMP_CVGQ=0,
   RDAMPDIV=2.,
 /
 &NAMDYNA
   LAPRXPK=.TRUE.,
   LSLHD_W=.FALSE.,
   LSLHD_T=.FALSE.,
   LSLHD_SPD=.FALSE.,
   LSLHD_SVD=.FALSE.,
   LSLHD_GFL=.FALSE.,
   LSLHD_OLD=.FALSE.,
   LNESC=.FALSE.,
   LNESCT=.FALSE.,
   LNESCV=.FALSE.,
   LSETTLS=.TRUE.,
   LSETTLST=.TRUE.,
   LSETTLSV=.TRUE.,
 /
 &NAMDYNCORE
 /
 &NAMEMIS_CONF
 /
 &NAMENKF
 /
 &NAMENSCOV
 /
 &NAMFA
   NBITCS=30,
   NBITPG=30,
   NSTRON=-1,
   YFAL%NBITS=16,
   YFAI%NBITS=16,
   YFAR%NBITS=16,
   YFAS%NBITS=16,
   YFALRAD%NBITS=16,
   YFAIRAD%NBITS=16,
   YFACLF%NBITS=6,
   YFATKE%NBITS=16,
   NVGRIB=123,
 /
 &NAMFAINIT
 /
 &NAMFPC
 /
 &NAMFPD
 /
 &NAMFPDY2
 /
 &NAMFPDYF
 /
 &NAMFPDYH
 /
 &NAMFPDYI
 /
 &NAMFPDYP
 /
 &NAMFPDYS
 /
 &NAMFPDYT
 /
 &NAMFPDYV
 /
 &NAMFPF
 /
 &NAMFPG
 /
 &NAMFPIOS
 /
 &NAMFPMOVE
 /
 &NAMFPOBJ
 /
 &NAMFPPHY
 /
 &NAMFPSC2
 /
 &NAMFPSC2_DEP
 /
 &NAMGEM
 /
 &NAMGFL
   NGFL_EXT=0,
   YQ_NL%LSP=.TRUE.,
   YQ_NL%LGP=.FALSE.,
   YCVGQ_NL%LGP=.FALSE.,
   YI_NL%LGPINGP=.TRUE.,
   YI_NL%LGP=.TRUE.,
   YI_NL%LT1=.TRUE.,
   YI_NL%LPHY=.FALSE.,
   YI_NL%NREQIN=1,
   YI_NL%LREQOUT=.TRUE.,
   YI_NL%LADV=.FALSE.,
   YI_NL%LQM=.FALSE.,
   YL_NL%LGPINGP=.TRUE.,
   YL_NL%LGP=.TRUE.,
   YL_NL%LT1=.TRUE.,
   YL_NL%LPHY=.FALSE.,
   YL_NL%NREQIN=1,
   YL_NL%LREQOUT=.TRUE.,
   YL_NL%LADV=.FALSE.,
   YL_NL%LQM=.FALSE.,
   YR_NL%LGPINGP=.TRUE.,
   YR_NL%LGP=.TRUE.,
   YR_NL%LT1=.TRUE.,
   YR_NL%LPHY=.FALSE.,
   YR_NL%NREQIN=1,
   YR_NL%LREQOUT=.TRUE.,
   YR_NL%LADV=.FALSE.,
   YR_NL%LQM=.FALSE.,
   YS_NL%LGPINGP=.TRUE.,
   YS_NL%LGP=.TRUE.,
   YS_NL%LT1=.TRUE.,
   YS_NL%LPHY=.FALSE.,
   YS_NL%NREQIN=1,
   YS_NL%LREQOUT=.TRUE.,
   YS_NL%LADV=.FALSE.,
   YS_NL%LQM=.FALSE.,
   YTKE_NL%LGPINGP=.TRUE.,
   YTKE_NL%LGP=.TRUE.,
   YTKE_NL%LT1=.TRUE.,
   YTKE_NL%NREQIN=1,
   YTKE_NL%LREQOUT=.TRUE.,
   YTKE_NL%LADV=.FALSE.,
   YTKE_NL%LQM=.FALSE.,
   YIRAD_NL%LGP=.TRUE.,
   YIRAD_NL%NREQIN=0,
   YIRAD_NL%LREQOUT=.TRUE.,
   YLRAD_NL%LGP=.TRUE.,
   YLRAD_NL%NREQIN=0,
   YLRAD_NL%LREQOUT=.TRUE.,
   YA_NL%LGP=.TRUE.,
   YA_NL%NREQIN=0,
   YA_NL%LREQOUT=.TRUE.,
   YQ_NL%LSLHD=.FALSE.,
   YO3_NL%LSLHD=.FALSE.,
   YL_NL%LSLHD=.FALSE.,
   YI_NL%LSLHD=.FALSE.,
   YA_NL%LSLHD=.FALSE.,
   YR_NL%LSLHD=.FALSE.,
   YS_NL%LSLHD=.FALSE.,
   YG_NL%LSLHD=.FALSE.,
   YTKE_NL%LSLHD=.FALSE.,
   YSRC_NL%LSLHD=.FALSE.,
   YCPF_NL%LSLHD=.FALSE.,
   YSPF_NL%LSLHD=.FALSE.,
   YCVGQ_NL%LSLHD=.FALSE.,
 /
 &NAMGRIB
 /
 &NAMGWD
 /
 &NAMGWDIAG
 /
 &NAMGWWMS
 /
 &NAMIAU
 /
 &NAMICE
 /
 &NAMINI
   LDFI=.FALSE.,
 /
 &NAMINTFLEX
 /
 &NAMIOMI
 /
 &NAMIOS
 /
 &NAMIO_SERV
 /
 &NAMJBCODES
 /
 &NAMJBHYBACV
 /
 &NAMJG
 /
 &NAMLCZ
 /
 &NAMLIMA
 /
 &NAMLSFORC
 /
 &NAMMARS
 /
 &NAMMCC
 /
 &NAMMCUF
 /
 &NAMMETHOX
 /
 &NAMMKODB
 /
 &NAMMODERR
 /
 &NAMMTS
 /
 &NAMMWAVE
 /
 &NAMNORGWD
 /
 &NAMNPROF
 /
 &NAMNUD
 /
 &NAMNUDGLH
 /
 &NAMOBS
 /
 &NAMOOPS
 /
 &NAMOPH
   LINC=.TRUE.,
 /
 &NAMOPTCMEM
 /
 &NAMPAR0
   MBX_SIZE=__MBX_SIZE__,
   NOUTPUT=1,
   NPROC=__NTASKS__,
   MP_TYPE=__MP_TYPE__,
   LOPT_SCALAR=__LOPT_SCALAR__,
   NPRINTLEV=1,
 /
 &NAMPAR1
   NSTRIN=__NTASKS__,
   NSTROUT=__NTASKS__,
   NCOMBFLEN=__NCOMBFLEN__,
   LEQ_REGIONS=.FALSE.,
 /
 &NAMPARAR
 /
 &NAMPERTPAR
 /
 &NAMPHMSE
 /
 &NAMPHY
   LMPHYS=.FALSE.,
 /
 &NAMPHY0
 /
 &NAMPHY1
 /
 &NAMPHY2
 /
 &NAMPHY3
 /
 &NAMPHYDS
 /
 &NAMPPC
 /
 &NAMPPVI
 /
 &NAMPRE
 /
 &NAMRADCMEM
 /
 &NAMRCF
 /
 &NAMRCOEF
 /
 &NAMRES
 /
 &NAMRGRI
 /
 &NAMRINC
 /
 &NAMRIP
   CSTOP='t1',
   TSTEP=200.,
 /
 &NAMRIP0
 /
 &NAMRLX
 /
 &NAMSATS
 /
 &NAMSATSIM
 /
 &NAMSCC
 /
 &NAMSCEN
 /
 &NAMSCM
 /
 &NAMSEKF
 /
 &NAMSENS
 /
 &NAMSIMPHL
 /
 &NAMSPNG
 /
 &NAMSPP
 /
 &NAMSPSDT
 /
 &NAMSTA
 /
 &NAMSTOPH
 /
 &NAMSWE
 /
 &NAMTESTVAR
 /
 &NAMTHLIM
 /
 &NAMTOPH
 /
 &NAMTRAJ
 /
 &NAMTRAJP
 /
 &NAMTRANS
   LUSEFLT=.FALSE.,
   LUSERPNM=.TRUE.,
   LKEEPRPNM=.TRUE.,
   LFFTW=.TRUE.,
 /
 &NAMTRANS0
 /
 &NAMVAR
 /
 &NAMVARBC
 /
 &NAMVARBC_AIREP
 /
 &NAMVARBC_ALLSKY
 /
 &NAMVARBC_GBRAD
 /
 &NAMVARBC_MODES
 /
 &NAMVARBC_RAD
 /
 &NAMVARBC_SFCOBS
 /
 &NAMVARBC_TCWV
 /
 &NAMVARBC_TO3
 /
 &NAMVAREPS
 /
 &NAMVDF
 /
 &NAMVDOZ
 /
 &NAMVOLCANO
 /
 &NAMVRTL
 /
 &NAMVV0
 /
 &NAMVV1
 /
 &NAMVWRK
 /
 &NAMWAVELETJB
 /
 &NAMXFU
 /
 &NAM_CANAPE
 /
 &NAM_DISTRIBUTED_VECTORS
 /
 &NAPHLC
 /
 &NEMCT0
 /
 &NEMDIM
 /
 &NEMDYN
 /
 &NEMELBC0A
 /
 &NEMELBC0B
 /
 &NEMFPEZO
 /
 &NEMGEO
 /
 &NEMJK
 /
 &NEMVAR
 /
 &NEMWAVELET
 /
