 &NACIETEO
 /
 &NACOBS
 /
 &NACTAN
 /
 &NACTEX
 /
 &NACVEG
 /
 &NADOCK
 /
 &NAEAEM7
 /
 &NAEAER
 /
 &NAECOAPHY
 /
 &NAEPHLI
 /
 &NAEPHY
 /
 &NAERAD
   LRRTM=.TRUE.,
   LSRTM=.FALSE.,
   NMCICA=0,
   NRADFR=-1,
   NSW=6,
   RLWINHF=0.9,
 /
 &NAERCLI
 /
 &NAETLDIAG
 /
 &NAEVOL
 /
 &NAIMPO
 /
 &NALORI
 /
 &NAMACV
 /
 &NAMAERDET
 /
 &NAMAFN
 /
 &NAMARG
   CNMEXP='ARPE',
   NCONF=1,
   LELAM=.FALSE.,
   LECMWF=.FALSE.,
   NSUPERSEDE=1,
 /
 &NAMARPHY
 /
 &NAMCA
 /
 &NAMCAPE
 /
 &NAMCFU
 /
 &NAMCHEM
 /
 &NAMCHET
 /
 &NAMCHK
 /
 &NAMCLA
 /
 &NAMCLDP
 /
 &NAMCLI
 /
 &NAMCLRADLID
 /
 &NAMCLTC
 /
 &NAMCOK
 /
 &NAMCOM
 /
 &NAMCOMPO
 /
 &NAMCOSJO
 /
 &NAMCT0
   LFBDAP=.TRUE.,
   LFDBOP=.FALSE.,
   NFRDHP=8,
   NFRHIS=1,
   NFRPOS=10000,
   NFRSDI=1,
   NHISTS(0)=1,
   NHISTS(1)=1,
   NPOSTS(0)=1,
   NPOSTS(1)=1,
   NSPPR=0,
   LGRIB_API=.FALSE.,
   LALLOPR=.FALSE.,
 /
 &NAMCT1
   LRFILAF=.FALSE.,
   N1RES=0,
 /
 &NAMCUMF
 /
 &NAMCUMFS
 /
 &NAMCVER
   LVERTFE=.FALSE.,
   LREGETA=.FALSE.,
   NDLNPR=2,
   LAPRXPK=.FALSE.,
 /
 &NAMCVMNH
   LSMOOTH=.FALSE.,
   OTADJS=10800.,
   XATPERT=500.,
   XBTPERT=0.5,
   XAW=1.,
   XBW=0.5,
   XCDEPTH=1.,
   XCDEPTH_D=4000.,
   XDTPERT=0.3,
   XENTR=0.01,
 /
 &NAMDDH
   LHDGLB=.FALSE.,
   LHDHKS=.FALSE.,
   LHDPRG=.FALSE.,
 /
 &NAMDFI
 /
 &NAMDIM
   NPROMA=-16,
 /
 &NAMDIMO
 /
 &NAMDIM_TRAJ
 /
 &NAMDPHY
 /
 &NAMDPRECIPS
 /
 &NAMDVISI
 /
 &NAMDWET
 /
 &NAMDYN
   BETADT=1.,
   LADVF=.TRUE.,
   NTLAG=3,
   NVLAG=3,
   NWLAG=3,
   NSVDLAG=3,
   NSPDLAG=3,
   NSITER=1,
   RCMSLP0=1.,
   REPS1=0.,
   REPS2=0.,
   REPSM1=0.,
   REPSM2=0.,
   REPSP1=0.,
   RW2TLFF=0.,
   SIPR=85000.,
   SITR=350.,
   SITRA=10.,
   VESL=0.,
   XIDT=0.,
   RDAMPDIV=2.,
   RDAMPVD=2.,
   RDAMPVOR=5.,
   RDAMPT=5.,
   RDAMPPD=5.,
   NITERHELM=1,
 /
 &NAMDYNA
   NPDVAR=3,
   NVDVAR=5,
   LRDBBC=.FALSE.,
   LGWADV=.TRUE.,
   ND4SYS=3,
   LNESC=.TRUE.,
   LNESCT=.FALSE.,
   LNESCV=.FALSE.,
   LSETTLS=.FALSE.,
   LSETTLST=.TRUE.,
   LSETTLSV=.TRUE.,
   LPC_FULL=.TRUE.,
   LPC_CHEAP=.TRUE.,
   LNHEE=.FALSE.,
   LNHQE=.TRUE.,
   LTWOTL=.TRUE.,
   LSLAG=.TRUE.,
 /
 &NAMDYNA_STATIC
 /
 &NAMDYNCORE
 /
 &NAMECV
 /
 &NAMECVDESC
 /
 &NAMECVGRB
 /
 &NAMEMIS_CONF
 /
 &NAMENKF
 /
 &NAMENSCOV
 /
 &NAMFA
   NBITCS=30,
   NBITPG=30,
   NSTRON=-1,
   YFAL%NBITS=16,
   YFAI%NBITS=16,
   YFAR%NBITS=16,
   YFAS%NBITS=16,
   YFALRAD%NBITS=16,
   YFAIRAD%NBITS=16,
   YFACLF%NBITS=6,
   YFATKE%NBITS=16,
   NVGRIB=123,
 /
 &NAMFAINIT
 /
 &NAMFPC
 /
 &NAMFPD
 /
 &NAMFPDY2
 /
 &NAMFPDYF
 /
 &NAMFPDYH
 /
 &NAMFPDYI
 /
 &NAMFPDYP
 /
 &NAMFPDYS
 /
 &NAMFPDYT
 /
 &NAMFPDYV
 /
 &NAMFPF
 /
 &NAMFPG
 /
 &NAMFPIOS
 /
 &NAMFPMOVE
 /
 &NAMFPOBJ
 /
 &NAMFPPHY
 /
 &NAMFPSC2
 /
 &NAMFPSC2_DEP
 /
 &NAMGEM
   LNONHYD_GEOM=.TRUE.,
   LNHX_GEOM=.TRUE.,
 /
 &NAMGFL
   YI_NL%LGPINGP=.TRUE.,
   YI_NL%LGP=.TRUE.,
   YI_NL%LT1=.TRUE.,
   YI_NL%LPHY=.FALSE.,
   YI_NL%NREQIN=1,
   YI_NL%LREQOUT=.TRUE.,
   YI_NL%LADV=.TRUE.,
   YI_NL%LQM=.TRUE.,
   YL_NL%LGPINGP=.TRUE.,
   YL_NL%LGP=.TRUE.,
   YL_NL%LT1=.TRUE.,
   YL_NL%LPHY=.FALSE.,
   YL_NL%NREQIN=1,
   YL_NL%LREQOUT=.TRUE.,
   YL_NL%LADV=.TRUE.,
   YL_NL%LQM=.TRUE.,
   YR_NL%LGPINGP=.TRUE.,
   YR_NL%LGP=.TRUE.,
   YR_NL%LT1=.TRUE.,
   YR_NL%LPHY=.FALSE.,
   YR_NL%NREQIN=1,
   YR_NL%LREQOUT=.TRUE.,
   YR_NL%LADV=.TRUE.,
   YR_NL%LQM=.TRUE.,
   YS_NL%LGPINGP=.TRUE.,
   YS_NL%LGP=.TRUE.,
   YS_NL%LT1=.TRUE.,
   YS_NL%LPHY=.FALSE.,
   YS_NL%NREQIN=1,
   YS_NL%LREQOUT=.TRUE.,
   YS_NL%LADV=.TRUE.,
   YS_NL%LQM=.TRUE.,
   YTKE_NL%LGPINGP=.TRUE.,
   YTKE_NL%LGP=.TRUE.,
   YTKE_NL%LT1=.TRUE.,
   YTKE_NL%NREQIN=1,
   YTKE_NL%LREQOUT=.TRUE.,
   YTKE_NL%LADV=.TRUE.,
   YTKE_NL%LQM=.TRUE.,
   YIRAD_NL%LGP=.TRUE.,
   YIRAD_NL%NREQIN=0,
   YIRAD_NL%LREQOUT=.TRUE.,
   YLRAD_NL%LGP=.TRUE.,
   YLRAD_NL%NREQIN=0,
   YLRAD_NL%LREQOUT=.TRUE.,
   YA_NL%LGP=.TRUE.,
   YA_NL%NREQIN=0,
   YA_NL%LREQOUT=.TRUE.,
 /
 &NAMGRIB
 /
 &NAMGWD
 /
 &NAMGWDIAG
 /
 &NAMGWWMS
 /
 &NAMIAU
 /
 &NAMICE
 /
 &NAMINI
   LDFI=.TRUE.,
 /
 &NAMINTFLEX
 /
 &NAMIOMI
 /
 &NAMIOS
 /
 &NAMIO_SERV
 /
 &NAMJBALPHACV
 /
 &NAMJBCODES
 /
 &NAMJBECPHYSECV
 /
 &NAMJBHYBACV
 /
 &NAMJBSKTECV
 /
 &NAMJG
 /
 &NAMLCZ
 /
 &NAMLSFORC
 /
 &NAMMARS
 /
 &NAMMCC
 /
 &NAMMCUF
 /
 &NAMMETHOX
 /
 &NAMMKODB
 /
 &NAMMODERR
 /
 &NAMMODERRCONF
 /
 &NAMMODERRCOV
 /
 &NAMMODERRINCRCONF
 /
 &NAMMODERRMOD
 /
 &NAMMTS
 /
 &NAMMWAVE
 /
 &NAMNORGWD
 /
 &NAMNPROF
 /
 &NAMNRTAER
 /
 &NAMNUD
 /
 &NAMNUDGLH
 /
 &NAMOBS
 /
 &NAMOOPS
 /
 &NAMOPH
   LINC=.TRUE.,
 /
 &NAMOPTCMEM
 /
 &NAMPAR0
   MBX_SIZE=__MBX_SIZE__,
   NOUTPUT=1,
   NPROC=__NTASKS__,
   MP_TYPE=__MP_TYPE__,
   LOPT_SCALAR=__LOPT_SCALAR__,
   NPRINTLEV=1,
 /
 &NAMPAR1
   NSTRIN=__NTASKS__,
   NSTROUT=__NTASKS__,
   NCOMBFLEN=__NCOMBFLEN__,
   LEQ_REGIONS=.FALSE.,
 /
 &NAMPARAR
 /
 &NAMPARECV
 /
 &NAMPERTOBS
 /
 &NAMPERTPAR
 /
 &NAMPHMSE
 /
 &NAMPHY
   CGMIXLEN='AY',
   LAERODES=.TRUE.,
   LAEROLAN=.TRUE.,
   LAEROSEA=.TRUE.,
   LAEROSOO=.TRUE.,
   LCONDWT=.TRUE.,
   LDIFCONS=.TRUE.,
   LFPCOR=.TRUE.,
   LNEWD=.TRUE.,
   LNOIAS=.TRUE.,
   LO3ABC=.TRUE.,
   LPROCLD=.TRUE.,
   LRAY=.FALSE.,
   LRAYFM=.TRUE.,
   LRAYLU=.TRUE.,
   LRNUMX=.TRUE.,
   LSSD=.TRUE.,
   LSTRA=.FALSE.,
   LVGSN=.TRUE.,
   LCVPPKF=.TRUE.,
   LECDEEP=.TRUE.,
   LECSHAL=.TRUE.,
   LECT=.TRUE.,
   LFLUSO=.TRUE.,
   LNEBECT=.FALSE.,
   LO3FL=.TRUE.,
   LECTFL=.TRUE.,
   LECTFL0=.TRUE.,
   LZ0HSREL=.TRUE.,
   LADJCLD=.TRUE.,
   LSMITH_CDEV=.TRUE.,
   NCALLRAD=2,
   LGLACIERS=.TRUE.,
   LDAYD=.TRUE.,
   LEDR=.TRUE.,
   LCVRA=.TRUE.,
   LEDMFI=.FALSE.,
   LGPCMT=.FALSE.,
   LNCVPGY=.FALSE.,
   NDPSFI=0,
 /
 &NAMPHY0
   EDD=1.,
   EDK=1.,
   GCVNU=0.00005,
   GCVPSI=1.,
   GCVPSIE=1.,
   GWDCD=5.4,
   GWDSE=0.005,
   GWDVALI=0.5,
   QSNEBC=-1.,
   QSSUSC=5.,
   RCVEVAP=0.25,
   REVASX=2.0D-7,
   RICRLM=0.5,
   TDDGP=0.6,
   TUDGP=0.6,
   USURIC=0.175,
   USURICL=1.,
   USURID=0.1,
   VZ0CM=0.0001,
   XBLM=8.5,
   XMAXLM=5000.,
   XMINLM=10.,
   ALMAVX=1000.,
   GCVHMIN=30000.,
   RFACNSM=1.2,
   RFLCHCE=0.25,
   RKFBTAU=7200.,
   RPRTH=1.,
   RQICRT2=0.,
   RQICVMIN=0.00001,
   SXNBCO=1.,
   ALMAVE=0.,
   RQCRNS=0.,
   RQICRSN=1.,
   TFVI=0.08,
   TFVL=0.02,
   TFVS=1.5,
   GCVOMGE=1.,
   ECTMAX=35.,
   AECLS4=3.,
   GDDEVA=0.2,
   GCVOMGQ=0.,
   REFLKUO=5000.,
   GCVRHMIN=0.5,
   GCVOMDPS=2000.,
   GCVOMCA=-1.918,
   GCVRHMAX=1.,
   GCVOMGS=1.,
   GCVOMCC=1.35,
   GCVOMGSX=0.5,
 /
 &NAMPHY1
   ALBMIN=0.65,
   ALCRIN=0.81,
   EMMGLA=0.98,
   EMMMER=0.99,
   ALRCN1=0.01,
 /
 &NAMPHY2
   FACRAF=4.,
   XMULAF=0.,
   LRAFTKE=.TRUE.,
   HTKERAF=20.,
 /
 &NAMPHY3
 /
 &NAMPHYDS
 /
 &NAMPPC
 /
 &NAMPPVI
 /
 &NAMPRE
 /
 &NAMRADCMEM
 /
 &NAMRCF
 /
 &NAMRCOEF
 /
 &NAMRES
 /
 &NAMRGRI
 /
 &NAMRINC
 /
 &NAMRIP
   CSTOP='t6',
   TSTEP=1800.,
 /
 &NAMRIP0
 /
 &NAMRLX
 /
 &NAMRPP
 /
 &NAMRSTRHBIAS
 /
 &NAMSATS
 /
 &NAMSATSIM
 /
 &NAMSCC
 /
 &NAMSCEN
 /
 &NAMSCM
 /
 &NAMSEKF
 /
 &NAMSENS
 /
 &NAMSIMPHL
 /
 &NAMSPNG
 /
 &NAMSPP
 /
 &NAMSPSDT
 /
 &NAMSTA
 /
 &NAMSTOPH
 /
 &NAMSWE
 /
 &NAMTESTVAR
 /
 &NAMTHLIM
 /
 &NAMTOPH
   ETCVIM=5000.,
   ETNEBU=5000.,
   ETPLUI=5000.,
   XDRMTK=2.0D-8,
   XDRMTP=800.,
   XDRMTX=4.0D-7,
   XDRMUK=1.0D-7,
   XDRMUP=800.,
   XDRMUX=0.000002,
 /
 &NAMTRAJ
 /
 &NAMTRAJP
 /
 &NAMTRANS
   LUSEFLT=.FALSE.,
   LUSERPNM=.TRUE.,
   LKEEPRPNM=.TRUE.,
   LFFTW=.TRUE.,
 /
 &NAMTRANS0
 /
 &NAMVAR
 /
 &NAMVARBC
 /
 &NAMVARBC_AIREP
 /
 &NAMVARBC_ALLSKY
 /
 &NAMVARBC_GBRAD
 /
 &NAMVARBC_MODES
 /
 &NAMVARBC_RAD
 /
 &NAMVARBC_SFCOBS
 /
 &NAMVARBC_TCWV
 /
 &NAMVARBC_TO3
 /
 &NAMVAREPS
 /
 &NAMVDF
 /
 &NAMVDOZ
 /
 &NAMVOLCANO
 /
 &NAMVRTL
 /
 &NAMVV0
 /
 &NAMVV1
 /
 &NAMVWRK
 /
 &NAMWAVELETJB
 /
 &NAMXFU
 /
 &NAM_CANAPE
 /
 &NAM_DISTRIBUTED_VECTORS
 /
 &NAM_NEBN
 /
 &NAM_PARAM_ICEN
 /
 &NAM_PARAM_LIMA
 /
 &NAM_PARAM_MFSHALLN
 /
 &NAM_SPP_ACTIVE
 /
 &NAM_SPP_MODIF
 /
 &NAM_TURBN
 /
 &NAPHLC
 /
 &NEMCT0
 /
 &NEMDIM
 /
 &NEMDYN
 /
 &NEMELBC0A
 /
 &NEMELBC0B
 /
 &NEMFPEZO
 /
 &NEMGEO
 /
 &NEMJK
 /
 &NEMVAR
 /
 &NEMWAVELET
 /
