 &NAERAD
   LRRTM=.FALSE.,
   LSRTM=.FALSE.,
   NMCICA=0,
 /
 &NAMARPHY
   LMPA=.FALSE.,
   LMSE=.FALSE.,
 /
 &NAMCVMNH
 /
 &NAMPHMSE
 /
 &NAMPHY
   LMPHYS=.FALSE.,
 /
 &NAMPHY0
 /
 &NAMPHY1
 /
 &NAMPHY2
 /
 &NAMPHY3
 /
 &NAMPHYDS
 /
 &NAMRCOEF
 /
 &NAMSIMPHL
 /
 &NAMTOPH
 /
 &NAPHLC
   LSPHLC=.TRUE.,
   LVDFLC=.TRUE.,
   LSDRLC=.TRUE.,
   LZMCON=.TRUE.,
   LKEXP=.TRUE.,
 /
