 &NACIETEO
 /
 &NACOBS
 /
 &NACTAN
 /
 &NACTEX
 /
 &NACVEG
 /
 &NADOCK
 /
 &NAEAEM7
 /
 &NAEAER
 /
 &NAECOAPHY
 /
 &NAEPHLI
 /
 &NAEPHY
 /
 &NAERAD
   LRRTM=.FALSE.,
   LSRTM=.FALSE.,
   NMCICA=0,
   NOZOCL=0,
 /
 &NAERCLI
 /
 &NAETLDIAG
 /
 &NAEVOL
 /
 &NAIMPO
 /
 &NALORI
 /
 &NAMACV
 /
 &NAMAERDET
 /
 &NAMAFN
 /
 &NAMARG
   CNMEXP='ARPE',
   NCONF=1,
   LELAM=.FALSE.,
   LECMWF=.FALSE.,
   NSUPERSEDE=1,
 /
 &NAMARPHY
 /
 &NAMCA
 /
 &NAMCAPE
 /
 &NAMCFU
 /
 &NAMCHEM
 /
 &NAMCHET
 /
 &NAMCHK
 /
 &NAMCLA
 /
 &NAMCLDP
 /
 &NAMCLI
 /
 &NAMCLRADLID
 /
 &NAMCLTC
 /
 &NAMCOK
 /
 &NAMCOM
 /
 &NAMCOMPO
 /
 &NAMCOSJO
 /
 &NAMCT0
   LFBDAP=.TRUE.,
   LFDBOP=.FALSE.,
   NFRDHP=8,
   NFRHIS=1,
   NFRPOS=10000,
   NFRSDI=1,
   NHISTS(0)=1,
   NHISTS(1)=1,
   NPOSTS(0)=1,
   NPOSTS(1)=1,
   NSPPR=0,
   LGRIB_API=.FALSE.,
   LALLOPR=.FALSE.,
 /
 &NAMCT1
   LRFILAF=.FALSE.,
   N1RES=0,
 /
 &NAMCUMF
 /
 &NAMCUMFS
 /
 &NAMCVER
   LVERTFE=.TRUE.,
   CVFE_ETAH='REGETA',
   LVFE_LAPL_BC=.FALSE.,
   LVFE_GW=.FALSE.,
   LVFE_ECMWF=.FALSE.,
   NVFE_TYPE=3,
   LREGETA=.FALSE.,
   NDLNPR=0,
   LAPRXPK=.TRUE.,
 /
 &NAMCVMNH
 /
 &NAMDDH
 /
 &NAMDFI
 /
 &NAMDIM
   NPROMA=-16,
 /
 &NAMDIMO
 /
 &NAMDIM_TRAJ
 /
 &NAMDPHY
 /
 &NAMDPRECIPS
 /
 &NAMDVISI
 /
 &NAMDWET
 /
 &NAMDYN
   BETADT=1.,
   LADVF=.TRUE.,
   NTLAG=3,
   NVLAG=3,
   NWLAG=3,
   NSVDLAG=3,
   NSPDLAG=3,
   NSITER=1,
   RCMSLP0=1.,
   REPS1=0.,
   REPS2=0.,
   REPSM1=0.,
   REPSM2=0.,
   REPSP1=0.,
   RW2TLFF=0.,
   SIPR=85000.,
   SITR=350.,
   SITRA=70.,
   VESL=0.,
   XIDT=0.,
   RDAMPDIV=2.,
   RDAMPVD=2.,
   RDAMPVOR=5.,
   RDAMPT=5.,
   RDAMPPD=5.,
   NITERHELM=1,
 /
 &NAMDYNA
   NPDVAR=2,
   NVDVAR=5,
   LRDBBC=.FALSE.,
   LGWADV=.TRUE.,
   ND4SYS=0,
   LNESC=.TRUE.,
   LNESCT=.TRUE.,
   LNESCV=.TRUE.,
   LSETTLS=.FALSE.,
   LSETTLST=.FALSE.,
   LSETTLSV=.FALSE.,
   LPC_FULL=.TRUE.,
   LPC_CHEAP=.FALSE.,
   LNHEE=.FALSE.,
   LNHQE=.TRUE.,
   LTWOTL=.TRUE.,
   LSLAG=.TRUE.,
 /
 &NAMDYNA_STATIC
 /
 &NAMDYNCORE
 /
 &NAMECV
 /
 &NAMECVDESC
 /
 &NAMECVGRB
 /
 &NAMEMIS_CONF
 /
 &NAMENKF
 /
 &NAMENSCOV
 /
 &NAMFA
   NBITCS=30,
   NBITPG=30,
   NSTRON=-1,
   YFAL%NBITS=16,
   YFAI%NBITS=16,
   YFAR%NBITS=16,
   YFAS%NBITS=16,
   YFALRAD%NBITS=16,
   YFAIRAD%NBITS=16,
   YFACLF%NBITS=6,
   YFATKE%NBITS=16,
   NVGRIB=123,
 /
 &NAMFAINIT
 /
 &NAMFPC
 /
 &NAMFPD
 /
 &NAMFPDY2
 /
 &NAMFPDYF
 /
 &NAMFPDYH
 /
 &NAMFPDYI
 /
 &NAMFPDYP
 /
 &NAMFPDYS
 /
 &NAMFPDYT
 /
 &NAMFPDYV
 /
 &NAMFPF
 /
 &NAMFPG
 /
 &NAMFPIOS
 /
 &NAMFPMOVE
 /
 &NAMFPOBJ
 /
 &NAMFPPHY
 /
 &NAMFPSC2
 /
 &NAMFPSC2_DEP
 /
 &NAMGEM
   LNONHYD_GEOM=.TRUE.,
   LNHX_GEOM=.TRUE.,
 /
 &NAMGFL
   YI_NL%LGPINGP=.TRUE.,
   YI_NL%LGP=.TRUE.,
   YI_NL%LT1=.TRUE.,
   YI_NL%LPHY=.FALSE.,
   YI_NL%NREQIN=1,
   YI_NL%LREQOUT=.TRUE.,
   YI_NL%LADV=.TRUE.,
   YI_NL%LQM=.TRUE.,
   YL_NL%LGPINGP=.TRUE.,
   YL_NL%LGP=.TRUE.,
   YL_NL%LT1=.TRUE.,
   YL_NL%LPHY=.FALSE.,
   YL_NL%NREQIN=1,
   YL_NL%LREQOUT=.TRUE.,
   YL_NL%LADV=.TRUE.,
   YL_NL%LQM=.TRUE.,
   YR_NL%LGPINGP=.TRUE.,
   YR_NL%LGP=.TRUE.,
   YR_NL%LT1=.TRUE.,
   YR_NL%LPHY=.FALSE.,
   YR_NL%NREQIN=1,
   YR_NL%LREQOUT=.TRUE.,
   YR_NL%LADV=.TRUE.,
   YR_NL%LQM=.TRUE.,
   YS_NL%LGPINGP=.TRUE.,
   YS_NL%LGP=.TRUE.,
   YS_NL%LT1=.TRUE.,
   YS_NL%LPHY=.FALSE.,
   YS_NL%NREQIN=1,
   YS_NL%LREQOUT=.TRUE.,
   YS_NL%LADV=.TRUE.,
   YS_NL%LQM=.TRUE.,
   YTKE_NL%LGPINGP=.TRUE.,
   YTKE_NL%LGP=.TRUE.,
   YTKE_NL%LT1=.TRUE.,
   YTKE_NL%NREQIN=1,
   YTKE_NL%LREQOUT=.TRUE.,
   YTKE_NL%LADV=.TRUE.,
   YTKE_NL%LQM=.TRUE.,
   YIRAD_NL%LGP=.TRUE.,
   YIRAD_NL%NREQIN=0,
   YIRAD_NL%LREQOUT=.TRUE.,
   YLRAD_NL%LGP=.TRUE.,
   YLRAD_NL%NREQIN=0,
   YLRAD_NL%LREQOUT=.TRUE.,
   YA_NL%LGP=.TRUE.,
   YA_NL%NREQIN=0,
   YA_NL%LREQOUT=.TRUE.,
 /
 &NAMGRIB
 /
 &NAMGWD
 /
 &NAMGWDIAG
 /
 &NAMGWWMS
 /
 &NAMIAU
 /
 &NAMICE
 /
 &NAMINI
   LDFI=.TRUE.,
 /
 &NAMINTFLEX
 /
 &NAMIOMI
 /
 &NAMIOS
 /
 &NAMIO_SERV
 /
 &NAMJBALPHACV
 /
 &NAMJBCODES
 /
 &NAMJBECPHYSECV
 /
 &NAMJBHYBACV
 /
 &NAMJBSKTECV
 /
 &NAMJG
 /
 &NAMLCZ
 /
 &NAMLSFORC
 /
 &NAMMARS
 /
 &NAMMCC
 /
 &NAMMCUF
 /
 &NAMMETHOX
 /
 &NAMMKODB
 /
 &NAMMODERR
 /
 &NAMMODERRCONF
 /
 &NAMMODERRCOV
 /
 &NAMMODERRINCRCONF
 /
 &NAMMODERRMOD
 /
 &NAMMTS
 /
 &NAMMWAVE
 /
 &NAMNORGWD
 /
 &NAMNPROF
 /
 &NAMNRTAER
 /
 &NAMNUD
 /
 &NAMNUDGLH
 /
 &NAMOBS
 /
 &NAMOOPS
 /
 &NAMOPH
   LINC=.TRUE.,
 /
 &NAMOPTCMEM
 /
 &NAMPAR0
   MBX_SIZE=__MBX_SIZE__,
   NOUTPUT=1,
   NPROC=__NTASKS__,
   MP_TYPE=__MP_TYPE__,
   LOPT_SCALAR=__LOPT_SCALAR__,
   NPRINTLEV=1,
 /
 &NAMPAR1
   NSTRIN=__NTASKS__,
   NSTROUT=__NTASKS__,
   NCOMBFLEN=__NCOMBFLEN__,
   LEQ_REGIONS=.FALSE.,
 /
 &NAMPARAR
 /
 &NAMPARECV
 /
 &NAMPERTOBS
 /
 &NAMPERTPAR
 /
 &NAMPHMSE
 /
 &NAMPHY
   LMPHYS=.FALSE.,
 /
 &NAMPHY0
 /
 &NAMPHY1
 /
 &NAMPHY2
 /
 &NAMPHY3
 /
 &NAMPHYDS
 /
 &NAMPPC
 /
 &NAMPPVI
 /
 &NAMPRE
 /
 &NAMRADCMEM
 /
 &NAMRCF
 /
 &NAMRCOEF
 /
 &NAMRES
 /
 &NAMRGRI
 /
 &NAMRINC
 /
 &NAMRIP
   CSTOP='t6',
   TSTEP=1800.,
 /
 &NAMRIP0
 /
 &NAMRLX
 /
 &NAMRPP
 /
 &NAMRSTRHBIAS
 /
 &NAMSATS
 /
 &NAMSATSIM
 /
 &NAMSCC
 /
 &NAMSCEN
 /
 &NAMSCM
 /
 &NAMSEKF
 /
 &NAMSENS
 /
 &NAMSIMPHL
 /
 &NAMSPNG
 /
 &NAMSPP
 /
 &NAMSPSDT
 /
 &NAMSTA
 /
 &NAMSTOPH
 /
 &NAMSWE
 /
 &NAMTESTVAR
 /
 &NAMTHLIM
 /
 &NAMTOPH
 /
 &NAMTRAJ
 /
 &NAMTRAJP
 /
 &NAMTRANS
   LUSEFLT=.FALSE.,
   LUSERPNM=.TRUE.,
   LKEEPRPNM=.TRUE.,
   LFFTW=.TRUE.,
 /
 &NAMTRANS0
 /
 &NAMVAR
 /
 &NAMVARBC
 /
 &NAMVARBC_AIREP
 /
 &NAMVARBC_ALLSKY
 /
 &NAMVARBC_GBRAD
 /
 &NAMVARBC_MODES
 /
 &NAMVARBC_RAD
 /
 &NAMVARBC_SFCOBS
 /
 &NAMVARBC_TCWV
 /
 &NAMVARBC_TO3
 /
 &NAMVAREPS
 /
 &NAMVDF
 /
 &NAMVDOZ
 /
 &NAMVOLCANO
 /
 &NAMVRTL
 /
 &NAMVV0
 /
 &NAMVV1
 /
 &NAMVWRK
 /
 &NAMWAVELETJB
 /
 &NAMXFU
 /
 &NAM_CANAPE
 /
 &NAM_DISTRIBUTED_VECTORS
 /
 &NAM_NEBN
 /
 &NAM_PARAM_ICEN
 /
 &NAM_PARAM_LIMA
 /
 &NAM_PARAM_MFSHALLN
 /
 &NAM_SPP_ACTIVE
 /
 &NAM_SPP_MODIF
 /
 &NAM_TURBN
 /
 &NAPHLC
 /
 &NEMCT0
 /
 &NEMDIM
 /
 &NEMDYN
 /
 &NEMELBC0A
 /
 &NEMELBC0B
 /
 &NEMFPEZO
 /
 &NEMGEO
 /
 &NEMJK
 /
 &NEMVAR
 /
 &NEMWAVELET
 /
