 &NAM_DIAG_ISBAN
   LPGD=.TRUE.,
   LSURF_MISC_BUDGET=.TRUE.,
 /
 &NAM_DIAG_SURFN
   LSURF_BUDGET=.TRUE.,
   N2M=2,
 /
 &NAM_ISBAN
 /
 &NAM_SEAFLUXN
   CSEA_FLUX='ECUME',
   LPWG=.FALSE.,
   LPRECIP=.FALSE.,
   LPWEBB=.FALSE.,
 /
 &NAM_SSON
   CROUGH='Z01D',
   XFRACZ0=10.,
 /
 &NAM_SURF_ATM
   XRIMAX=0.2,
   LNOSOF=.TRUE.,
 /
 &NAM_SURF_CSTS
 /
 &NAM_WRITE_DIAG_SURFN
 /
 &NAM_WRITE_SURF_ATM
   LNOWRITE_TEXFILE=.TRUE.,
 /
