 &NAM_CONF_PROJ
 /
 &NAM_CONF_PROJ_GRID
 /
 &NAM_COVER
 /
 &NAM_IO_OFFLINE
 /
 &NAM_ISBA
 /
 &NAM_PGD_GRID
 /
 &NAM_ZS
 /
