 &NACIETEO
 /
 &NACOBS
 /
 &NACTAN
 /
 &NACTEX
 /
 &NACVEG
 /
 &NADOCK
 /
 &NAEAEM7
 /
 &NAEAER
 /
 &NAECOAPHY
 /
 &NAEPHLI
 /
 &NAEPHY
 /
 &NAERAD
   LRRTM=.FALSE.,
   LSRTM=.FALSE.,
   NMCICA=0,
 /
 &NAERCLI
 /
 &NAEVOL
 /
 &NAIMPO
 /
 &NALORI
 /
 &NAMAFN
 /
 &NAMARG
   CNMEXP='ARPE',
   NCONF=903,
   LELAM=.FALSE.,
   LECMWF=.FALSE.,
   CUSTOP='h00',
   UTSTEP=60.,
   LSLAG=.FALSE.,
   NSUPERSEDE=1,
 /
 &NAMARPHY
 /
 &NAMCA
 /
 &NAMCAPE
 /
 &NAMCFU
 /
 &NAMCHEM
 /
 &NAMCHET
 /
 &NAMCHK
 /
 &NAMCLA
 /
 &NAMCLDP
 /
 &NAMCLI
 /
 &NAMCLOP15
 /
 &NAMCLTC
 /
 &NAMCOK
 /
 &NAMCOM
 /
 &NAMCOSJO
 /
 &NAMCT0
   NFPOS=2,
   NSPPR=0,
   LGRIB_API=.FALSE.,
   LALLOPR=.FALSE.,
   NUNDEFLD=-99999999,
 /
 &NAMCT1
   LRFILAF=.FALSE.,
   N1HIS=0,
   N1RES=0,
 /
 &NAMCUMF
 /
 &NAMCUMFS
 /
 &NAMCVER
 /
 &NAMCVMNH
 /
 &NAMDDH
 /
 &NAMDFI
 /
 &NAMDIM
   NPROMA=-16,
 /
 &NAMDIMO
 /
 &NAMDIM_TRAJ
 /
 &NAMDPHY
 /
 &NAMDYN
 /
 &NAMDYNA
 /
 &NAMDYNCORE
 /
 &NAMEMIS_CONF
 /
 &NAMENKF
 /
 &NAMFA
   NBITCS=30,
   NBITPG=30,
   NSTRON=-1,
   YFAL%NBITS=16,
   YFAI%NBITS=16,
   YFAR%NBITS=16,
   YFAS%NBITS=16,
   YFALRAD%NBITS=16,
   YFAIRAD%NBITS=16,
   YFACLF%NBITS=6,
   YFATKE%NBITS=16,
   NVGRIB=123,
 /
 &NAMFAINIT
 /
 &NAMFPC
   CFPFMT='MODEL',
   CFP3DF='GEOPOTENTIEL','TEMPERATURE','HUMI.SPECIFI','VENT_ZONAL','VENT_MERIDIEN','DIVERGENCE','TEMPE_POTENT',
   CFP2DF='SURFPRESSION','MSLPRESSURE','MAP_FACTOR',
   CFPPHY='SURFTEMPERATURE','SURFGEOPOTENTIEL',
   RFP3P(1)=20000.,50000.,85000.,100000.,
   RFP3H=20.,1500.,
   RFP3PV=0.000002,
   RFP3TH=300.,
   NRFP3S=2,5,7,12,
   NFITT=0,
   NFITV=1,
   NFITP=1,
   LTRACEFP=.TRUE.,
   NFPCLI=0,
   LFPISOPV=.FALSE.,
   NITERPV=0,
   NFPGRIB=123,
   NFPINPHY=4,
 /
 &NAMFPD
 /
 &NAMFPDY2
 /
 &NAMFPDYF
 /
 &NAMFPDYH
 /
 &NAMFPDYI
 /
 &NAMFPDYP
 /
 &NAMFPDYS
 /
 &NAMFPDYT
 /
 &NAMFPDYV
 /
 &NAMFPF
   LFPBED=.TRUE.,
 /
 &NAMFPG
   FPNLGINC=0.,
   NFPTTYP=2,
 /
 &NAMFPIOS
 /
 &NAMFPMOVE
 /
 &NAMFPPHY
 /
 &NAMFPSC2
   NFPROMA=-16,
 /
 &NAMFPSC2_DEP
   NFPROMA_DEP=-16,
 /
 &NAMGEM
 /
 &NAMGFL
 /
 &NAMGRIB
 /
 &NAMGWD
 /
 &NAMGWDIAG
 /
 &NAMGWWMS
 /
 &NAMIAU
 /
 &NAMICE
 /
 &NAMINI
   LDFI=.FALSE.,
 /
 &NAMINTFLEX
 /
 &NAMIOMI
 /
 &NAMIOS
 /
 &NAMIO_SERV
 /
 &NAMJBCODES
 /
 &NAMJFH
 /
 &NAMJG
 /
 &NAMLCZ
 /
 &NAMLSFORC
 /
 &NAMMARS
 /
 &NAMMCC
 /
 &NAMMCUF
 /
 &NAMMKODB
 /
 &NAMMODERR
 /
 &NAMMTS
 /
 &NAMMWAVE
 /
 &NAMNPROF
 /
 &NAMNUD
 /
 &NAMOBS
 /
 &NAMONEDVAR
 /
 &NAMOOPS
 /
 &NAMOPH
 /
 &NAMOPTCMEM
 /
 &NAMPAR0
   MBX_SIZE=__MBX_SIZE__,
   NOUTPUT=1,
   NPROC=__NTASKS__,
   MP_TYPE=__MP_TYPE__,
   LOPT_SCALAR=__LOPT_SCALAR__,
   NPRINTLEV=0,
 /
 &NAMPAR1
   NSTRIN=__NTASKS__,
   NSTROUT=__NTASKS__,
   NCOMBFLEN=__NCOMBFLEN__,
   LEQ_REGIONS=.FALSE.,
 /
 &NAMPARAR
 /
 &NAMPHMSE
 /
 &NAMPHY
 /
 &NAMPHY0
 /
 &NAMPHY1
 /
 &NAMPHY2
 /
 &NAMPHY3
 /
 &NAMPHYDS
 /
 &NAMPONG
 /
 &NAMPPC
 /
 &NAMPPVI
 /
 &NAMPRE
 /
 &NAMRAD15
 /
 &NAMRADCMEM
 /
 &NAMRCF
 /
 &NAMRCOEF
 /
 &NAMRES
 /
 &NAMRGRI
 /
 &NAMRINC
 /
 &NAMRIP
 /
 &NAMRIP0
 /
 &NAMRLX
 /
 &NAMSATS
 /
 &NAMSCC
 /
 &NAMSCEN
 /
 &NAMSCM
 /
 &NAMSEKF
 /
 &NAMSENS
 /
 &NAMSIMPHL
 /
 &NAMSPNG
 /
 &NAMSPSDT
 /
 &NAMSTA
 /
 &NAMSTOPH
 /
 &NAMSWE
 /
 &NAMTESTVAR
 /
 &NAMTHLIM
 /
 &NAMTOPH
 /
 &NAMTRAJP
 /
 &NAMTRANS
   LUSEFLT=.FALSE.,
   LUSERPNM=.TRUE.,
   LKEEPRPNM=.TRUE.,
   LFFTW = .TRUE.,
   LFFT992=.FALSE.,
 /
 &NAMTRANS0
 /
 &NAMTS
 /
 &NAMVAR
 /
 &NAMVARBC
 /
 &NAMVARBC_AIREP
 /
 &NAMVARBC_ALLSKY
 /
 &NAMVARBC_GBRAD
 /
 &NAMVARBC_RAD
 /
 &NAMVARBC_SFCOBS
 /
 &NAMVARBC_TCWV
 /
 &NAMVARBC_TO3
 /
 &NAMVAREPS
 /
 &NAMVDF
 /
 &NAMVDOZ
 /
 &NAMVOLCANO
 /
 &NAMVRTL
 /
 &NAMVV0
 /
 &NAMVV1
 /
 &NAMVWRK
 /
 &NAMWAVELETJB
 /
 &NAMXFU
 /
 &NAM_CANAPE
 /
 &NAM_DISTRIBUTED_VECTORS
 /
 &NAPHLC
 /
 &NEMCT0
 /
 &NEMDIM
 /
 &NEMDYN
 /
 &NEMELBC0A
 /
 &NEMELBC0B
 /
 &NEMFPEZO
 /
 &NEMGEO
 /
 &NEMJK
 /
 &NEMVAR
 /
 &NEMWAVELET
 /
