 &NACIETEO
 /
 &NACOBS
 /
 &NACTAN
 /
 &NACTEX
 /
 &NACVEG
 /
 &NADOCK
 /
 &NAEAEM7
 /
 &NAEAER
 /
 &NAECOAPHY
 /
 &NAEPHLI
 /
 &NAEPHY
 /
 &NAERAD
   LRRTM=.FALSE.,
   LSRTM=.FALSE.,
   NMCICA=0,
 /
 &NAERCLI
 /
 &NAEVOL
 /
 &NAIMPO
 /
 &NALORI
 /
 &NAMAFN
 /
 &NAMARG
   CNMEXP='ARPE',
   NCONF=1,
   LELAM=.TRUE.,
   LECMWF=.FALSE.,
   CUSTOP='t30',
   UTSTEP=30.,
   LSLAG=.TRUE.,
   NSUPERSEDE=1,
 /
 &NAMARPHY
 /
 &NAMCA
 /
 &NAMCAPE
 /
 &NAMCFU
 /
 &NAMCHEM
 /
 &NAMCHET
 /
 &NAMCHK
 /
 &NAMCLA
 /
 &NAMCLDP
 /
 &NAMCLI
 /
 &NAMCLOP15
 /
 &NAMCLTC
 /
 &NAMCOK
 /
 &NAMCOM
 /
 &NAMCOSJO
 /
 &NAMCT0
   CNPPATH='.',
   NFRHIS=1,
   NHISTS(0)=-2,
   NHISTS(1)=0,
   NHISTS(2)=-3,
   NFRPOS=1,
   NPOSTS(0)=-1,
   NPOSTS(1)=-96,
   NFRSDI=1,
   LNHDYN=.TRUE.,
   LTWOTL=.TRUE.,
   LFDBOP=.FALSE.,
   NSPPR=0,
   LALLOPR=.FALSE.,
   LGRIB_API=.FALSE.,
   LVFE_REGETA=.FALSE.,
   NUNDEFLD=-99999999,
 /
 &NAMCT1
   LRFILAF=.FALSE.,
   N1POS=0,
   N1RES=0,
 /
 &NAMCUMF
 /
 &NAMCUMFS
 /
 &NAMCVER
   LVERTFE=.FALSE.,
   NVSCH=0,
   LVFE_INT_ECMWF=.TRUE.,
   LVFE_CENTRI=.FALSE.,
   LVFE_APPROX=.FALSE.,
   LVFE_VDA=.FALSE.,
   NVFE_ORDER=4,
   LVFE_LAPL=.FALSE.,
   LVFE_LAPL_BC=.FALSE.,
   LVFE_LAPL_HALF=.FALSE.,
   LVFE_X_TERM=.FALSE.,
   LVFE_GW=.FALSE.,
   LVFE_Z_TERM=.FALSE.,
   LVFE_GWMPA=.FALSE.,
   LVFE_DELNHPRE=.FALSE.,
   LVFE_DBCS=.FALSE.,
   LVFE_DBCT=.FALSE.,
   LVFE_DERIB=.FALSE.,
   LVFE_INTB=.FALSE.,
 /
 &NAMCVMNH
 /
 &NAMDDH
 /
 &NAMDFI
   NSTDFI=9,
   TAUS=10800.,
 /
 &NAMDIM
   NPROMA=-16,
 /
 &NAMDIMO
 /
 &NAMDIM_TRAJ
 /
 &NAMDPHY
 /
 &NAMDYN
   LADVF=.TRUE.,
   NTLAG=3,
   NWLAG=3,
   NVLAG=3,
   NSVDLAG=3,
   NSPDLAG=3,
   RCMSLP0=1.,
   SIPR=90000.,
   SITR=350.,
   SITRA=50.,
   VESL=0.,
   VETAON=1.,
   VETAOX=1.,
   XIDT=0.,
   RDAMPDIV=5.,
   RDAMPVD=5.,
   RDAMPVOR=5.,
   RDAMPT=5.,
   RDAMPPD=5.,
   NSITER=1,
   NITERHELM=0,
 /
 &NAMDYNA
   LAPRXPK=.FALSE.,
   NDLNPR=1,
   ND4SYS=2,
   NVDVAR=4,
   NPDVAR=2,
   LGWADV=.TRUE.,
   LRDBBC=.FALSE.,
   LNESC=.TRUE.,
   LNESCT=.FALSE.,
   LNESCV=.FALSE.,
   LSETTLS=.FALSE.,
   LSETTLST=.TRUE.,
   LSETTLSV=.TRUE.,
   LPC_FULL=.TRUE.,
   LPC_CHEAP=.TRUE.,
 /
 &NAMDYNCORE
 /
 &NAMEMIS_CONF
 /
 &NAMENKF
 /
 &NAMFA
   NBITCS=-1,
   NSTRON=-1,
   NBITPG=-1,
 /
 &NAMFAINIT
 /
 &NAMFPC
 /
 &NAMFPD
 /
 &NAMFPDY2
 /
 &NAMFPDYF
 /
 &NAMFPDYH
 /
 &NAMFPDYI
 /
 &NAMFPDYP
 /
 &NAMFPDYS
 /
 &NAMFPDYT
 /
 &NAMFPDYV
 /
 &NAMFPF
 /
 &NAMFPG
 /
 &NAMFPIOS
 /
 &NAMFPMOVE
 /
 &NAMFPPHY
 /
 &NAMFPSC2
 /
 &NAMFPSC2_DEP
 /
 &NAMGEM
 /
 &NAMGFL
 /
 &NAMGRIB
 /
 &NAMGWD
 /
 &NAMGWDIAG
 /
 &NAMGWWMS
 /
 &NAMIAU
 /
 &NAMICE
 /
 &NAMINI
   LDFI=.TRUE.,
 /
 &NAMINTFLEX
 /
 &NAMIOMI
 /
 &NAMIOS
 /
 &NAMIO_SERV
 /
 &NAMJBCODES
 /
 &NAMJFH
 /
 &NAMJG
 /
 &NAMLCZ
 /
 &NAMLSFORC
 /
 &NAMMARS
 /
 &NAMMCC
 /
 &NAMMCUF
 /
 &NAMMKODB
 /
 &NAMMODERR
 /
 &NAMMTS
 /
 &NAMMWAVE
 /
 &NAMNPROF
 /
 &NAMNUD
 /
 &NAMOBS
 /
 &NAMONEDVAR
 /
 &NAMOOPS
 /
 &NAMOPH
   LINC=.TRUE.,
   CFNHWF='ECHIS',
 /
 &NAMOPTCMEM
 /
 &NAMPAR0
   MBX_SIZE=__MBX_SIZE__,
   NOUTPUT=1,
   NPROC=__NTASKS__,
   MP_TYPE=__MP_TYPE__,
   LOPT_SCALAR=__LOPT_SCALAR__,
   NPRINTLEV=0,
 /
 &NAMPAR1
   LEQ_REGIONS=.FALSE.,
   LSPLIT=.FALSE.,
   NSTRIN=__NTASKS__,
   NSTROUT=__NTASKS__,
   NCOMBFLEN=__NCOMBFLEN__,
 /
 &NAMPARAR
 /
 &NAMPHMSE
 /
 &NAMPHY
   LMPHYS=.FALSE.,
   LSOLV=.FALSE.,
   LFGEL=.FALSE.,
 /
 &NAMPHY0
 /
 &NAMPHY1
 /
 &NAMPHY2
 /
 &NAMPHY3
 /
 &NAMPHYDS
 /
 &NAMPONG
 /
 &NAMPPC
 /
 &NAMPPVI
 /
 &NAMPRE
 /
 &NAMRAD15
 /
 &NAMRADCMEM
 /
 &NAMRCF
 /
 &NAMRCOEF
 /
 &NAMRES
 /
 &NAMRGRI
 /
 &NAMRINC
 /
 &NAMRIP
 /
 &NAMRIP0
 /
 &NAMRLX
 /
 &NAMSATS
 /
 &NAMSCC
 /
 &NAMSCEN
 /
 &NAMSCM
 /
 &NAMSEKF
 /
 &NAMSENS
 /
 &NAMSIMPHL
 /
 &NAMSPNG
 /
 &NAMSPSDT
 /
 &NAMSTA
 /
 &NAMSTOPH
 /
 &NAMSWE
 /
 &NAMTESTVAR
 /
 &NAMTHLIM
 /
 &NAMTOPH
 /
 &NAMTRAJP
 /
 &NAMTRANS
   LFFTW = .TRUE.,
   LFFT992=.FALSE.,
 /
 &NAMTRANS0
 /
 &NAMTS
 /
 &NAMVAR
 /
 &NAMVARBC
 /
 &NAMVARBC_AIREP
 /
 &NAMVARBC_ALLSKY
 /
 &NAMVARBC_GBRAD
 /
 &NAMVARBC_RAD
 /
 &NAMVARBC_SFCOBS
 /
 &NAMVARBC_TCWV
 /
 &NAMVARBC_TO3
 /
 &NAMVAREPS
 /
 &NAMVDF
 /
 &NAMVDOZ
 /
 &NAMVOLCANO
 /
 &NAMVRTL
 /
 &NAMVV0
 /
 &NAMVV1
 /
 &NAMVWRK
 /
 &NAMWAVELETJB
 /
 &NAMXFU
 /
 &NAM_CANAPE
 /
 &NAM_DISTRIBUTED_VECTORS
 /
 &NAPHLC
 /
 &NEMCT0
 /
 &NEMDIM
 /
 &NEMDYN
 /
 &NEMELBC0A
   NBICOP=2,
   NBICOT=2,
   NBICOU=2,
   NBICPD=2,
   NBICVD=2,
   NBICNHX=2,
   NECRIPL=1,
 /
 &NEMELBC0B
   TEFRCL=10800.,
 /
 &NEMFPEZO
 /
 &NEMGEO
 /
 &NEMJK
 /
 &NEMVAR
 /
 &NEMWAVELET
 /
