 &NACIETEO
 /
 &NACOBS
 /
 &NACTAN
 /
 &NACTEX
 /
 &NACVEG
 /
 &NADOCK
 /
 &NAEAEM7
 /
 &NAEAER
 /
 &NAECOAPHY
 /
 &NAEPHLI
 /
 &NAEPHY
 /
 &NAERAD
   LRRTM=.FALSE.,
   LSRTM=.FALSE.,
   NMCICA=0,
 /
 &NAERCLI
 /
 &NAEVOL
 /
 &NAIMPO
 /
 &NALORI
 /
 &NAMAFN
 /
 &NAMARG
   CNMEXP='ARPE',
   NCONF=1,
   LELAM=.TRUE.,
   LECMWF=.FALSE.,
   CUSTOP='t24',
   UTSTEP=450.,
   LSLAG=.TRUE.,
   NSUPERSEDE=1,
 /
 &NAMARPHY
 /
 &NAMCA
 /
 &NAMCAPE
 /
 &NAMCFU
 /
 &NAMCHEM
 /
 &NAMCHET
 /
 &NAMCHK
 /
 &NAMCLA
 /
 &NAMCLDP
 /
 &NAMCLI
 /
 &NAMCLOP15
 /
 &NAMCLTC
 /
 &NAMCOK
 /
 &NAMCOM
 /
 &NAMCOSJO
 /
 &NAMCT0
   CNPPATH='.',
   NFRHIS=1,
   NHISTS(0)=-13,
   NHISTS(1)=0,
   NHISTS(2)=-3,
   NHISTS(3)=-6,
   NHISTS(4)=-9,
   NHISTS(5)=-12,
   NHISTS(6)=-15,
   NHISTS(7)=-18,
   NHISTS(8)=-21,
   NHISTS(9)=-24,
   NHISTS(10)=-27,
   NHISTS(11)=-30,
   NHISTS(12)=-33,
   NHISTS(13)=-36,
   NFRPOS=1,
   NPOSTS(0)=-1,
   NPOSTS(1)=-96,
   NFRSDI=1,
   LTWOTL=.TRUE.,
   LFDBOP=.FALSE.,
   LGRIB_API=.FALSE.,
   LALLOPR=.FALSE.,
   NUNDEFLD=-99999999,
 /
 &NAMCT1
   LRFILAF=.FALSE.,
   N1POS=0,
 /
 &NAMCUMF
 /
 &NAMCUMFS
 /
 &NAMCVER
   LVERTFE=.FALSE.,
   NVSCH=0,
 /
 &NAMCVMNH
 /
 &NAMDDH
 /
 &NAMDFI
 /
 &NAMDIM
   NPROMA=-16,
 /
 &NAMDIMO
 /
 &NAMDIM_TRAJ
 /
 &NAMDPHY
 /
 &NAMDYN
   VMAX2=130.,
   XIDT=0.05,
   SIPR=100000.,
   SITR=350.,
   VESL=0.,
   REPS1=0.,
   REPS2=0.,
   REPSM1=0.,
   REPSM2=0.,
   REPSP1=0.,
   NVLAG=3,
   NWLAG=3,
   NTLAG=3,
   LADVF=.TRUE.,
   VETAON=1.,
   VETAOX=1.,
   RDAMPDIV=5.,
 /
 &NAMDYNA
   LAPRXPK=.FALSE.,
   LSLHD_W=.TRUE.,
   LSLHD_T=.TRUE.,
   LSLHD_SPD=.TRUE.,
   LSLHD_SVD=.TRUE.,
   LSLHD_GFL=.TRUE.,
   SLHDEPSH=0.02,
   SLHDKMIN=-2.,
   SLHDKMAX=6.,
   LSLHD_OLD=.FALSE.,
   LNESC=.FALSE.,
   LNESCT=.FALSE.,
   LNESCV=.FALSE.,
   LSETTLS=.TRUE.,
   LSETTLST=.TRUE.,
   LSETTLSV=.TRUE.,
 /
 &NAMDYNCORE
 /
 &NAMEMIS_CONF
 /
 &NAMENKF
 /
 &NAMFA
   NBITCS=-1,
   NSTRON=-1,
   NBITPG=-1,
 /
 &NAMFAINIT
 /
 &NAMFPC
 /
 &NAMFPD
 /
 &NAMFPDY2
 /
 &NAMFPDYF
 /
 &NAMFPDYH
 /
 &NAMFPDYI
 /
 &NAMFPDYP
 /
 &NAMFPDYS
 /
 &NAMFPDYT
 /
 &NAMFPDYV
 /
 &NAMFPF
 /
 &NAMFPG
 /
 &NAMFPIOS
 /
 &NAMFPMOVE
 /
 &NAMFPPHY
 /
 &NAMFPSC2
 /
 &NAMFPSC2_DEP
 /
 &NAMGEM
 /
 &NAMGFL
   YO3_NL%LSLHD=.TRUE.,
   YQ_NL%LSLHD=.TRUE.,
   YTKE_NL%LSLHD=.TRUE.,
   YSRC_NL%LSLHD=.TRUE.,
   YI_NL%LSLHD=.TRUE.,
   YA_NL%LSLHD=.TRUE.,
   YL_NL%LSLHD=.TRUE.,
   YR_NL%LSLHD=.TRUE.,
   YS_NL%LSLHD=.TRUE.,
   YG_NL%LSLHD=.TRUE.,
   YCPF_NL%LSLHD=.TRUE.,
   YSPF_NL%LSLHD=.TRUE.,
   YCVGQ_NL%LSLHD=.TRUE.,
 /
 &NAMGRIB
 /
 &NAMGWD
 /
 &NAMGWDIAG
 /
 &NAMGWWMS
 /
 &NAMIAU
 /
 &NAMICE
 /
 &NAMINI
   LDFI=.TRUE.,
 /
 &NAMINTFLEX
 /
 &NAMIOMI
 /
 &NAMIOS
 /
 &NAMIO_SERV
 /
 &NAMJBCODES
 /
 &NAMJFH
 /
 &NAMJG
 /
 &NAMLCZ
 /
 &NAMLSFORC
 /
 &NAMMARS
 /
 &NAMMCC
 /
 &NAMMCUF
 /
 &NAMMKODB
 /
 &NAMMODERR
 /
 &NAMMTS
 /
 &NAMMWAVE
 /
 &NAMNPROF
 /
 &NAMNUD
 /
 &NAMOBS
 /
 &NAMONEDVAR
 /
 &NAMOOPS
 /
 &NAMOPH
   LINC=.TRUE.,
   CFNHWF='ECHIS',
 /
 &NAMOPTCMEM
 /
 &NAMPAR0
   MBX_SIZE=__MBX_SIZE__,
   NOUTPUT=1,
   NPROC=__NTASKS__,
   MP_TYPE=__MP_TYPE__,
   LOPT_SCALAR=__LOPT_SCALAR__,
   NPRINTLEV=0,
 /
 &NAMPAR1
   LEQ_REGIONS=.FALSE.,
   LSPLIT=.FALSE.,
   NSTRIN=__NTASKS__,
   NSTROUT=__NTASKS__,
   NCOMBFLEN=__NCOMBFLEN__,
 /
 &NAMPARAR
 /
 &NAMPHMSE
 /
 &NAMPHY
   LMPHYS=.FALSE.,
   LSOLV=.FALSE.,
   LFGEL=.FALSE.,
 /
 &NAMPHY0
 /
 &NAMPHY1
 /
 &NAMPHY2
 /
 &NAMPHY3
 /
 &NAMPHYDS
 /
 &NAMPONG
 /
 &NAMPPC
 /
 &NAMPPVI
 /
 &NAMPRE
 /
 &NAMRAD15
 /
 &NAMRADCMEM
 /
 &NAMRCF
 /
 &NAMRCOEF
 /
 &NAMRES
 /
 &NAMRGRI
 /
 &NAMRINC
 /
 &NAMRIP
 /
 &NAMRIP0
 /
 &NAMRLX
 /
 &NAMSATS
 /
 &NAMSCC
 /
 &NAMSCEN
 /
 &NAMSCM
 /
 &NAMSEKF
 /
 &NAMSENS
 /
 &NAMSIMPHL
 /
 &NAMSPNG
 /
 &NAMSPSDT
 /
 &NAMSTA
 /
 &NAMSTOPH
 /
 &NAMSWE
 /
 &NAMTESTVAR
 /
 &NAMTHLIM
 /
 &NAMTOPH
 /
 &NAMTRAJP
 /
 &NAMTRANS
   LFFTW = .TRUE.,
   LFFT992=.FALSE.,
 /
 &NAMTRANS0
 /
 &NAMTS
 /
 &NAMVAR
 /
 &NAMVARBC
 /
 &NAMVARBC_AIREP
 /
 &NAMVARBC_ALLSKY
 /
 &NAMVARBC_GBRAD
 /
 &NAMVARBC_RAD
 /
 &NAMVARBC_SFCOBS
 /
 &NAMVARBC_TCWV
 /
 &NAMVARBC_TO3
 /
 &NAMVAREPS
 /
 &NAMVDF
 /
 &NAMVDOZ
 /
 &NAMVOLCANO
 /
 &NAMVRTL
 /
 &NAMVV0
 /
 &NAMVV1
 /
 &NAMVWRK
 /
 &NAMWAVELETJB
 /
 &NAMXFU
 /
 &NAM_CANAPE
 /
 &NAM_DISTRIBUTED_VECTORS
 /
 &NAPHLC
 /
 &NEMCT0
 /
 &NEMDIM
 /
 &NEMDYN
 /
 &NEMELBC0A
   NBICOP=2,
   NBICOT=2,
   NBICOU=2,
   NECRIPL=1,
 /
 &NEMELBC0B
   TEFRCL=10800.,
 /
 &NEMFPEZO
 /
 &NEMGEO
 /
 &NEMJK
 /
 &NEMVAR
 /
 &NEMWAVELET
 /
