 &NAMDDH
   LHDEFZ=.TRUE.,
   LHDHKS=.TRUE.,
   LHDZON=.TRUE.,
   LHDDOP=.TRUE.,
   LHDEFD=.TRUE.,
   NDHKD=30,
   BDEDDH(1,01)=4.,
   BDEDDH(2,01)=1.,
   BDEDDH(3,01)=-085.940,
   BDEDDH(4,01)=0079.990,
   BDEDDH(1,02)=4.,
   BDEDDH(2,02)=1.,
   BDEDDH(3,02)=-156.616,
   BDEDDH(4,02)=0071.322,
   BDEDDH(1,03)=4.,
   BDEDDH(2,03)=1.,
   BDEDDH(3,03)=0026.650,
   BDEDDH(4,03)=0067.370,
   BDEDDH(1,04)=4.,
   BDEDDH(2,04)=1.,
   BDEDDH(3,04)=0014.124,
   BDEDDH(4,04)=0052.167,
   BDEDDH(1,05)=4.,
   BDEDDH(2,05)=1.,
   BDEDDH(3,05)=0004.927,
   BDEDDH(4,05)=0051.971,
   BDEDDH(1,06)=4.,
   BDEDDH(2,06)=1.,
   BDEDDH(3,06)=-001.437,
   BDEDDH(4,06)=0051.145,
   BDEDDH(1,07)=4.,
   BDEDDH(2,07)=1.,
   BDEDDH(3,07)=0002.208,
   BDEDDH(4,07)=0048.713,
   BDEDDH(1,08)=4.,
   BDEDDH(2,08)=1.,
   BDEDDH(3,08)=-000.692,
   BDEDDH(4,08)=0044.832,
   BDEDDH(1,09)=4.,
   BDEDDH(2,09)=1.,
   BDEDDH(3,09)=0004.407,
   BDEDDH(4,09)=0043.858,
   BDEDDH(1,10)=4.,
   BDEDDH(2,10)=1.,
   BDEDDH(3,10)=0001.374,
   BDEDDH(4,10)=0043.575,
   BDEDDH(1,11)=4.,
   BDEDDH(2,11)=1.,
   BDEDDH(3,11)=0000.370,
   BDEDDH(4,11)=0043.128,
   BDEDDH(1,12)=4.,
   BDEDDH(2,12)=1.,
   BDEDDH(3,12)=0015.750,
   BDEDDH(4,12)=0040.590,
   BDEDDH(1,13)=4.,
   BDEDDH(2,13)=1.,
   BDEDDH(3,13)=-097.500,
   BDEDDH(4,13)=0036.617,
   BDEDDH(1,14)=4.,
   BDEDDH(2,14)=1.,
   BDEDDH(3,14)=0002.176,
   BDEDDH(4,14)=0013.477,
   BDEDDH(1,15)=4.,
   BDEDDH(2,15)=1.,
   BDEDDH(3,15)=0166.916,
   BDEDDH(4,15)=-000.521,
   BDEDDH(1,16)=4.,
   BDEDDH(2,16)=1.,
   BDEDDH(3,16)=0147.425,
   BDEDDH(4,16)=-002.006,
   BDEDDH(1,17)=4.,
   BDEDDH(2,17)=1.,
   BDEDDH(3,17)=0130.891,
   BDEDDH(4,17)=-012.425,
   BDEDDH(1,18)=4.,
   BDEDDH(2,18)=1.,
   BDEDDH(3,18)=-005.783,
   BDEDDH(4,18)=041.816,
   BDEDDH(1,19)=4.,
   BDEDDH(2,19)=1.,
   BDEDDH(3,19)=024.65,
   BDEDDH(4,19)=060.183,
   BDEDDH(1,20)=4.,
   BDEDDH(2,20)=1.,
   BDEDDH(3,20)=027.50,
   BDEDDH(4,20)=062.666,
   BDEDDH(1,21)=4.,
   BDEDDH(2,21)=1.,
   BDEDDH(3,21)=025.566,
   BDEDDH(4,21)=066.550,
   BDEDDH(1,22)=4.,
   BDEDDH(2,22)=1.,
   BDEDDH(3,22)=123.340,
   BDEDDH(4,22)=-75.080,
 /
