 &NAM_DIAG_ISBAN
 /
 &NAM_DIAG_SURFN
 /
 &NAM_ISBAN
 /
 &NAM_SEAFLUXN
 /
 &NAM_SSON
 /
 &NAM_SURF_ATM
 /
 &NAM_SURF_CSTS
 /
 &NAM_WRITE_DIAG_SURFN
 /
 &NAM_WRITE_SURF_ATM
 /
