 &NACIETEO
 /
 &NACOBS
 /
 &NACTAN
 /
 &NACTEX
 /
 &NACVEG
 /
 &NADOCK
 /
 &NAEAEM7
 /
 &NAEAER
 /
 &NAECOAPHY
 /
 &NAEPHLI
 /
 &NAEPHY
 /
 &NAERAD
   LRRTM=.FALSE.,
   LSRTM=.FALSE.,
   NMCICA=0,
 /
 &NAERCLI
 /
 &NAETLDIAG
 /
 &NAEVOL
 /
 &NAIMPO
 /
 &NALORI
 /
 &NAMACV
 /
 &NAMAERDET
 /
 &NAMAFN
 /
 &NAMARG
   CNMEXP='ARPE',
   NCONF=1,
   LELAM=.TRUE.,
   LECMWF=.FALSE.,
   LSLAG=.TRUE.,
   NSUPERSEDE=1,
 /
 &NAMARPHY
 /
 &NAMCA
 /
 &NAMCAPE
 /
 &NAMCFU
 /
 &NAMCHEM
 /
 &NAMCHET
 /
 &NAMCHK
 /
 &NAMCLA
 /
 &NAMCLDP
 /
 &NAMCLI
 /
 &NAMCLTC
 /
 &NAMCOK
 /
 &NAMCOM
 /
 &NAMCOMPO
 /
 &NAMCOSJO
 /
 &NAMCT0
   CNPPATH='.',
   NFRHIS=1,
   NHISTS(0)=4,
   NHISTS(1)=200,
   NHISTS(2)=240,
   NHISTS(3)=500,
   NHISTS(4)=1000,
   NFRPOS=1,
   NPOSTS(0)=-1,
   NPOSTS(1)=-96,
   NFRSDI=1,
   LNHEE=.TRUE.,
   LNHQE=.FALSE.,
   LTWOTL=.TRUE.,
   LFDBOP=.FALSE.,
   NSPPR=0,
   LGRIB_API=.FALSE.,
   LALLOPR=.FALSE.,
   NUNDEFLD=1,
 /
 &NAMCT1
   LRFILAF=.FALSE.,
   N1POS=0,
   N1RES=0,
 /
 &NAMCUMF
 /
 &NAMCUMFS
 /
 &NAMCVER
 /
 &NAMCVMNH
 /
 &NAMDDH
 /
 &NAMDFI
   NSTDFI=50,
   TAUS=5.,
 /
 &NAMDIM
   NPROMA=-16,
 /
 &NAMDIMO
 /
 &NAMDIM_TRAJ
 /
 &NAMDPHY
 /
 &NAMDPRECIPS
 /
 &NAMDVISI
 /
 &NAMDYN
   LADVF=.FALSE.,
   NTLAG=3,
   NWLAG=3,
   NVLAG=3,
   NSVDLAG=3,
   NSPDLAG=3,
   NSITER=1,
   RCMSLP0=1.,
   SITR=239.,
   SITRA=239.,
   SIPR=101325.,
   VESL=0.,
   VETAON=1.,
   VETAOX=1.,
   XIDT=0.,
   BETADT=1.,
   VMAX2=800.,
   RDAMPDIV=5.,
   RDAMPVD=5.,
   RDAMPVOR=5.,
   RDAMPT=5.,
   RDAMPPD=5.,
   RRDXTAU=10000000000.,
 /
 &NAMDYNA
   NDLNPR=1,
   NVDVAR=4,
   NPDVAR=2,
   ND4SYS=2,
   LGWADV=.FALSE.,
   LRDBBC=.TRUE.,
   LNESC=.FALSE.,
   LNESCT=.FALSE.,
   LNESCV=.FALSE.,
   LSETTLS=.TRUE.,
   LSETTLST=.TRUE.,
   LSETTLSV=.TRUE.,
   LPC_FULL=.TRUE.,
   LPC_CHEAP=.FALSE.,
 /
 &NAMDYNCORE
 /
 &NAMEMIS_CONF
 /
 &NAMENKF
 /
 &NAMENSCOV
 /
 &NAMFA
   NBITCS=-1,
   NSTRON=-1,
   NBITPG=-1,
 /
 &NAMFAINIT
 /
 &NAMFPC
 /
 &NAMFPD
 /
 &NAMFPDY2
 /
 &NAMFPDYF
 /
 &NAMFPDYH
 /
 &NAMFPDYI
 /
 &NAMFPDYP
 /
 &NAMFPDYS
 /
 &NAMFPDYT
 /
 &NAMFPDYV
 /
 &NAMFPF
 /
 &NAMFPG
 /
 &NAMFPIOS
 /
 &NAMFPMOVE
 /
 &NAMFPOBJ
 /
 &NAMFPPHY
 /
 &NAMFPSC2
 /
 &NAMFPSC2_DEP
 /
 &NAMGEM
 /
 &NAMGFL
 /
 &NAMGRIB
 /
 &NAMGWD
 /
 &NAMGWDIAG
 /
 &NAMGWWMS
 /
 &NAMIAU
 /
 &NAMICE
 /
 &NAMINI
   LDFI=.FALSE.,
 /
 &NAMINTFLEX
 /
 &NAMIOMI
 /
 &NAMIOS
 /
 &NAMIO_SERV
 /
 &NAMJBCODES
 /
 &NAMJBHYBACV
 /
 &NAMJG
 /
 &NAMLCZ
 /
 &NAMLIMA
 /
 &NAMLSFORC
 /
 &NAMMARS
 /
 &NAMMCC
 /
 &NAMMCUF
 /
 &NAMMETHOX
 /
 &NAMMKODB
 /
 &NAMMODERR
 /
 &NAMMTS
 /
 &NAMMWAVE
 /
 &NAMNORGWD
 /
 &NAMNPROF
 /
 &NAMNUD
 /
 &NAMOBS
 /
 &NAMOOPS
 /
 &NAMOPH
   LINC=.FALSE.,
   CFNHWF='ECHIS',
 /
 &NAMOPTCMEM
 /
 &NAMPAR0
   MBX_SIZE=__MBX_SIZE__,
   NOUTPUT=1,
   NPROC=__NTASKS__,
   MP_TYPE=__MP_TYPE__,
   LOPT_SCALAR=__LOPT_SCALAR__,
   NPRINTLEV=1,
 /
 &NAMPAR1
   LEQ_REGIONS=.FALSE.,
   LSPLIT=.FALSE.,
   NSTRIN=__NTASKS__,
   NSTROUT=__NTASKS__,
   NCOMBFLEN=__NCOMBFLEN__,
 /
 &NAMPARAR
 /
 &NAMPHMSE
 /
 &NAMPHY
   LMPHYS=.FALSE.,
   LSOLV=.FALSE.,
   LFGEL=.FALSE.,
 /
 &NAMPHY0
 /
 &NAMPHY1
 /
 &NAMPHY2
 /
 &NAMPHY3
 /
 &NAMPHYDS
 /
 &NAMPPC
 /
 &NAMPPVI
 /
 &NAMPRE
 /
 &NAMRADCMEM
 /
 &NAMRCF
 /
 &NAMRCOEF
 /
 &NAMRES
 /
 &NAMRGRI
 /
 &NAMRINC
 /
 &NAMRIP
   CSTOP='t200',
   TSTEP=0.05,
 /
 &NAMRIP0
 /
 &NAMRLX
 /
 &NAMSATS
 /
 &NAMSATSIM
 /
 &NAMSCC
 /
 &NAMSCEN
 /
 &NAMSCM
 /
 &NAMSEKF
 /
 &NAMSENS
 /
 &NAMSIMPHL
 /
 &NAMSPNG
 /
 &NAMSPP
 /
 &NAMSPSDT
 /
 &NAMSTA
 /
 &NAMSTOPH
 /
 &NAMSWE
 /
 &NAMTESTVAR
 /
 &NAMTHLIM
 /
 &NAMTOPH
 /
 &NAMTRAJ
 /
 &NAMTRAJP
 /
 &NAMTRANS
   LFFTW=.TRUE.,
 /
 &NAMTRANS0
 /
 &NAMVAR
 /
 &NAMVARBC
 /
 &NAMVARBC_AIREP
 /
 &NAMVARBC_ALLSKY
 /
 &NAMVARBC_GBRAD
 /
 &NAMVARBC_RAD
 /
 &NAMVARBC_SFCOBS
 /
 &NAMVARBC_TCWV
 /
 &NAMVARBC_TO3
 /
 &NAMVAREPS
 /
 &NAMVDF
 /
 &NAMVDOZ
 /
 &NAMVOLCANO
 /
 &NAMVRTL
 /
 &NAMVV0
 /
 &NAMVV1
 /
 &NAMVWRK
 /
 &NAMWAVELETJB
 /
 &NAMXFU
 /
 &NAM_CANAPE
 /
 &NAM_DISTRIBUTED_VECTORS
 /
 &NAPHLC
 /
 &NEMCT0
 /
 &NEMDIM
   NBZONL=0,
   NBZONG=8,
 /
 &NEMDYN
 /
 &NEMELBC0A
   NBICOP=2,
   NBICOT=2,
   NBICOU=2,
   NBICPD=2,
   NBICVD=2,
   NBICNHX=2,
   NECRIPL=1,
 /
 &NEMELBC0B
   TEFRCL=100000.,
 /
 &NEMFPEZO
 /
 &NEMGEO
   LMAP=.FALSE.,
   RCORI_ACAD=0.,
 /
 &NEMJK
 /
 &NEMVAR
 /
 &NEMWAVELET
 /
