 &NACIETEO
 /
 &NACOBS
 /
 &NACTAN
 /
 &NACTEX
 /
 &NACVEG
 /
 &NADOCK
 /
 &NAEAEM7
 /
 &NAEAER
 /
 &NAECOAPHY
 /
 &NAEPHLI
 /
 &NAEPHY
 /
 &NAERAD
   LRRTM=.FALSE.,
   LSRTM=.FALSE.,
   NMCICA=0,
   NOZOCL=0,
 /
 &NAERCLI
 /
 &NAETLDIAG
 /
 &NAEVOL
 /
 &NAIMPO
 /
 &NALORI
 /
 &NAMACV
 /
 &NAMAERDET
 /
 &NAMAFN
   TFP_L%LLGP=.TRUE.,
   TFP_I%LLGP=.TRUE.,
   TFP_RR%LLGP=.TRUE.,
   TFP_SN%LLGP=.TRUE.,
   TFP_TKE%LLGP=.TRUE.,
 /
 &NAMARG
   CNMEXP='ARPE',
   NCONF=903,
   LELAM=.FALSE.,
   LECMWF=.FALSE.,
   NSUPERSEDE=1,
 /
 &NAMARPHY
 /
 &NAMCA
 /
 &NAMCAPE
 /
 &NAMCFU
 /
 &NAMCHEM
 /
 &NAMCHET
 /
 &NAMCHK
 /
 &NAMCLA
 /
 &NAMCLDP
 /
 &NAMCLI
 /
 &NAMCLRADLID
 /
 &NAMCLTC
 /
 &NAMCOK
 /
 &NAMCOM
 /
 &NAMCOMPO
 /
 &NAMCOSJO
 /
 &NAMCT0
   NFPOS=2,
   NSPPR=0,
   LGRIB_API=.FALSE.,
   LALLOPR=.FALSE.,
   NUNDEFLD=-99999999,
 /
 &NAMCT1
   LRFILAF=.FALSE.,
   N1HIS=0,
   N1RES=0,
 /
 &NAMCUMF
 /
 &NAMCUMFS
 /
 &NAMCVER
 /
 &NAMCVMNH
 /
 &NAMDDH
 /
 &NAMDFI
 /
 &NAMDIM
   NPROMA=-16,
 /
 &NAMDIMO
 /
 &NAMDIM_TRAJ
 /
 &NAMDPHY
 /
 &NAMDPRECIPS
 /
 &NAMDVISI
 /
 &NAMDYN
 /
 &NAMDYNA
   LSETTLS=.FALSE.,
   LSLAG=.FALSE.,
 /
 &NAMDYNA_STATIC
 /
 &NAMDYNCORE
 /
 &NAMECV
 /
 &NAMECVDESC
 /
 &NAMECVGRB
 /
 &NAMEMIS_CONF
 /
 &NAMENKF
 /
 &NAMENSCOV
 /
 &NAMFA
   NBITCS=30,
   NBITPG=30,
   NSTRON=-1,
   YFAI%NBITS=16,
   YFAL%NBITS=16,
   YFAR%NBITS=16,
   YFAS%NBITS=16,
   YFALRAD%NBITS=16,
   YFAIRAD%NBITS=16,
   YFACLF%NBITS=6,
   YFATKE%NBITS=16,
   NVGRIB=123,
 /
 &NAMFAINIT
 /
 &NAMFPC
   CFPFMT='GAUSS',
   CFP3DF(1)='TEMPERATURE',
   CFP3DF(2)='FONC.COURANT',
   CFP3DF(3)='POT.VITESSE',
   CFP3DF(4)='HUMI.SPECIFIQUE',
   CFP3DF(5)='LIQUID_WATER',
   CFP3DF(6)='SOLID_WATER',
   CFP3DF(7)='RAIN',
   CFP3DF(8)='SNOW',
   CFP3DF(9)='TKE',
   CFP2DF(1)='SURFPRESSION',
   CFP2DF(2)='SPECSURFGEOPOTENTIEL',
   CFPPHY(1)='SURFTEMPERATURE',
   CFPPHY(2)='PROFTEMPERATURE',
   CFPPHY(3)='PROFRESERV.EAU',
   CFPPHY(4)='SURFRESERV.NEIGE',
   CFPPHY(5)='SURFRESERV.EAU',
   CFPPHY(6)='SURFZ0.FOIS.G',
   CFPPHY(7)='SURFALBEDO',
   CFPPHY(8)='SURFEMISSIVITE',
   CFPPHY(9)='SURFET.GEOPOTENT',
   CFPPHY(10)='SURFIND.TERREMER',
   CFPPHY(11)='SURFPROP.VEGETAT',
   CFPPHY(12)='SURFVAR.GEOP.ANI',
   CFPPHY(13)='SURFVAR.GEOP.DIR',
   CFPPHY(14)='SURFIND.VEG.DOMI',
   CFPPHY(15)='SURFRESI.STO.MIN',
   CFPPHY(16)='SURFPROP.ARGILE',
   CFPPHY(17)='SURFPROP.SABLE',
   CFPPHY(18)='SURFEPAIS.SOL',
   CFPPHY(19)='SURFIND.FOLIAIRE',
   CFPPHY(20)='SURFRES.EVAPOTRA',
   CFPPHY(21)='SURFGZ0.THERM',
   CFPPHY(22)='PROFRESERV.GLACE',
   CFPPHY(23)='SURFRESERV.INTER',
   CFPPHY(24)='SURFRESERV.GLACE',
   CFPPHY(25)='SURFDENSIT.NEIGE',
   CFPPHY(26)='SURFALBEDO NEIGE',
   CFPPHY(27)='SURFALBEDO.SOLNU',
   CFPPHY(28)='SURFALBEDO.VEG',
   CFPPHY(29)='SURFA.OF.OZONE  ',
   CFPPHY(30)='SURFB.OF.OZONE  ',
   CFPPHY(31)='SURFC.OF.OZONE  ',
   CFPPHY(32)='SURFAEROS.SEA   ',
   CFPPHY(33)='SURFAEROS.LAND  ',
   CFPPHY(34)='SURFAEROS.SOOT  ',
   CFPPHY(35)='SURFAEROS.DESERT',
   NFPCLI=3,
   LFPMOIS=.FALSE.,
   NRFP3S=1,2,3,4,5,6,7,8,9,10,11,12,13,14,15,16,17,18,19,20,21,22,23,24,25,26,27,28,29,30,31,32,33,34,35,36,37,38,39,40,41,42,43,44,45,46,47,48,49,50,51,52,53,54,55,56,57,58,59,60,61,62,63,64,65,66,67,68,69,70,
   NFPGRIB=123,
   NFPINPHY=4,
 /
 &NAMFPD
   NLAT=108,
   NLON=216,
 /
 &NAMFPDY2
 /
 &NAMFPDYF
 /
 &NAMFPDYH
 /
 &NAMFPDYI
 /
 &NAMFPDYP
 /
 &NAMFPDYS
 /
 &NAMFPDYT
 /
 &NAMFPDYV
 /
 &NAMFPF
 /
 &NAMFPG
   NFPRGRI(  1)=20,
   NFPRGRI(  2)=30,
   NFPRGRI(  3)=40,
   NFPRGRI(  4)=48,
   NFPRGRI(  5)=54,
   NFPRGRI(  6)=64,
   NFPRGRI(  7)=72,
   NFPRGRI(  8)=80,
   NFPRGRI(  9)=90,
   NFPRGRI( 10)=90,
   NFPRGRI( 11)=96,
   NFPRGRI( 12)=108,
   NFPRGRI( 13)=120,
   NFPRGRI( 14)=120,
   NFPRGRI( 15)=128,
   NFPRGRI( 16)=128,
   NFPRGRI( 17)=144,
   NFPRGRI( 18)=144,
   NFPRGRI( 19)=144,
   NFPRGRI( 20)=150,
   NFPRGRI( 21)=160,
   NFPRGRI( 22)=160,
   NFPRGRI( 23)=180,
   NFPRGRI( 24)=180,
   NFPRGRI( 25)=180,
   NFPRGRI( 26)=180,
   NFPRGRI( 27)=192,
   NFPRGRI( 28)=192,
   NFPRGRI( 29)=192,
   NFPRGRI( 30)=200,
   NFPRGRI( 31)=200,
   NFPRGRI( 32)=200,
   NFPRGRI( 33)=216,
   NFPRGRI( 34)=216,
   NFPRGRI( 35)=216,
   NFPRGRI( 36)=216,
   NFPRGRI( 37)=216,
   NFPRGRI( 38)=216,
   NFPRGRI( 39)=216,
   NFPRGRI( 40)=216,
   NFPRGRI( 41)=216,
   NFPRGRI( 42)=216,
   NFPRGRI( 43)=216,
   NFPRGRI( 44)=216,
   NFPRGRI( 45)=216,
   NFPRGRI( 46)=216,
   NFPRGRI( 47)=216,
   NFPRGRI( 48)=216,
   NFPRGRI( 49)=216,
   NFPRGRI( 50)=216,
   NFPRGRI( 51)=216,
   NFPRGRI( 52)=216,
   NFPRGRI( 53)=216,
   NFPRGRI( 54)=216,
   FPLOCEN=0.,
   FPMUCEN=1.,
   FPSTRET=1.,
   NFPHTYP=2,
   NFPLEV=70,
   NFPMAX=107,
   NFPTTYP=1,
 /
 &NAMFPIOS
 /
 &NAMFPMOVE
 /
 &NAMFPOBJ
 /
 &NAMFPPHY
 /
 &NAMFPSC2
   NFPROMA=-16,
 /
 &NAMFPSC2_DEP
   NFPROMA_DEP=-16,
 /
 &NAMGEM
   LNONHYD_GEOM=.FALSE.,
   LNHX_GEOM=.FALSE.,
 /
 &NAMGFL
   YI_NL%LGPINGP=.FALSE.,
   YI_NL%LGP=.TRUE.,
   YI_NL%LT1=.TRUE.,
   YI_NL%LPHY=.FALSE.,
   YI_NL%NREQIN=1,
   YI_NL%LREQOUT=.TRUE.,
   YL_NL%LGPINGP=.FALSE.,
   YL_NL%LGP=.TRUE.,
   YL_NL%LT1=.TRUE.,
   YL_NL%LPHY=.FALSE.,
   YL_NL%NREQIN=1,
   YL_NL%LREQOUT=.TRUE.,
   YR_NL%LGPINGP=.FALSE.,
   YR_NL%LGP=.TRUE.,
   YR_NL%LT1=.TRUE.,
   YR_NL%LPHY=.FALSE.,
   YR_NL%NREQIN=1,
   YR_NL%LREQOUT=.TRUE.,
   YS_NL%LGPINGP=.FALSE.,
   YS_NL%LGP=.TRUE.,
   YS_NL%LT1=.TRUE.,
   YS_NL%LPHY=.FALSE.,
   YS_NL%NREQIN=1,
   YS_NL%LREQOUT=.TRUE.,
   YTKE_NL%LGPINGP=.TRUE.,
   YTKE_NL%LGP=.TRUE.,
   YTKE_NL%LT1=.TRUE.,
   YTKE_NL%NREQIN=1,
   YTKE_NL%LREQOUT=.TRUE.,
   YIRAD_NL%LGP=.TRUE.,
   YIRAD_NL%NREQIN=0,
   YIRAD_NL%LREQOUT=.TRUE.,
   YLRAD_NL%LGP=.TRUE.,
   YLRAD_NL%NREQIN=0,
   YLRAD_NL%LREQOUT=.TRUE.,
   YA_NL%LGP=.TRUE.,
   YA_NL%NREQIN=0,
   YA_NL%LREQOUT=.TRUE.,
 /
 &NAMGRIB
 /
 &NAMGWD
 /
 &NAMGWDIAG
 /
 &NAMGWWMS
 /
 &NAMIAU
 /
 &NAMICE
 /
 &NAMINI
   LDFI=.FALSE.,
 /
 &NAMINTFLEX
 /
 &NAMIOMI
 /
 &NAMIOS
 /
 &NAMIO_SERV
 /
 &NAMJBALPHACV
 /
 &NAMJBCODES
 /
 &NAMJBECPHYSECV
 /
 &NAMJBHYBACV
 /
 &NAMJBSKTECV
 /
 &NAMJG
 /
 &NAMLCZ
 /
 &NAMLIMA
 /
 &NAMLSFORC
 /
 &NAMMARS
 /
 &NAMMCC
 /
 &NAMMCUF
 /
 &NAMMETHOX
 /
 &NAMMKODB
 /
 &NAMMODERR
 /
 &NAMMODERRCONF
 /
 &NAMMODERRCOV
 /
 &NAMMODERRINCRCONF
 /
 &NAMMODERRMOD
 /
 &NAMMTS
 /
 &NAMMWAVE
 /
 &NAMNORGWD
 /
 &NAMNPROF
 /
 &NAMNUD
 /
 &NAMNUDGLH
 /
 &NAMOBS
 /
 &NAMOOPS
 /
 &NAMOPH
 /
 &NAMOPTCMEM
 /
 &NAMPAR0
   MBX_SIZE=__MBX_SIZE__,
   NOUTPUT=1,
   NPROC=__NTASKS__,
   MP_TYPE=__MP_TYPE__,
   LOPT_SCALAR=__LOPT_SCALAR__,
   NPRINTLEV=1,
 /
 &NAMPAR1
   NSTRIN=__NTASKS__,
   NSTROUT=__NTASKS__,
   NCOMBFLEN=__NCOMBFLEN__,
   LEQ_REGIONS=.FALSE.,
 /
 &NAMPARAR
 /
 &NAMPARECV
 /
 &NAMPERTPAR
 /
 &NAMPHMSE
 /
 &NAMPHY
   LAERODES=.TRUE.,
   LAEROLAN=.TRUE.,
   LAEROSEA=.TRUE.,
   LAEROSOO=.TRUE.,
   LCONDWT=.TRUE.,
   LNEBN=.FALSE.,
   LO3ABC=.TRUE.,
   LVGSN=.TRUE.,
 /
 &NAMPHY0
 /
 &NAMPHY1
 /
 &NAMPHY2
 /
 &NAMPHY3
 /
 &NAMPHYDS
 /
 &NAMPPC
 /
 &NAMPPVI
 /
 &NAMPRE
 /
 &NAMRADCMEM
 /
 &NAMRCF
 /
 &NAMRCOEF
 /
 &NAMRES
 /
 &NAMRGRI
 /
 &NAMRINC
 /
 &NAMRIP
   CSTOP='h00',
   TSTEP=900.,
 /
 &NAMRIP0
 /
 &NAMRLX
 /
 &NAMRSTRHBIAS
 /
 &NAMSATS
 /
 &NAMSATSIM
 /
 &NAMSCC
 /
 &NAMSCEN
 /
 &NAMSCM
 /
 &NAMSEKF
 /
 &NAMSENS
 /
 &NAMSIMPHL
 /
 &NAMSPNG
 /
 &NAMSPP
 /
 &NAMSPSDT
 /
 &NAMSTA
 /
 &NAMSTOPH
 /
 &NAMSWE
 /
 &NAMTESTVAR
 /
 &NAMTHLIM
 /
 &NAMTOPH
 /
 &NAMTRAJ
 /
 &NAMTRAJP
 /
 &NAMTRANS
   LUSEFLT=.FALSE.,
   LUSERPNM=.TRUE.,
   LKEEPRPNM=.TRUE.,
   LFFTW=.TRUE.,
 /
 &NAMTRANS0
 /
 &NAMVAR
 /
 &NAMVARBC
 /
 &NAMVARBC_AIREP
 /
 &NAMVARBC_ALLSKY
 /
 &NAMVARBC_GBRAD
 /
 &NAMVARBC_MODES
 /
 &NAMVARBC_RAD
 /
 &NAMVARBC_SFCOBS
 /
 &NAMVARBC_TCWV
 /
 &NAMVARBC_TO3
 /
 &NAMVAREPS
 /
 &NAMVDF
 /
 &NAMVDOZ
 /
 &NAMVOLCANO
 /
 &NAMVRTL
 /
 &NAMVV0
 /
 &NAMVV1
 /
 &NAMVWRK
 /
 &NAMWAVELETJB
 /
 &NAMXFU
 /
 &NAM_CANAPE
 /
 &NAM_DISTRIBUTED_VECTORS
 /
 &NAPHLC
 /
 &NEMCT0
 /
 &NEMDIM
 /
 &NEMDYN
 /
 &NEMELBC0A
 /
 &NEMELBC0B
 /
 &NEMFPEZO
 /
 &NEMGEO
 /
 &NEMJK
 /
 &NEMVAR
 /
 &NEMWAVELET
 /
